1

   Abaqus 2022                                  Date 11-Nov-2022   Time 16:05:21
   For use by Supplied by Team-SolidSQUAD under license from Dassault Systemes or its subsidiary.

                                                                                 
                                                                                 
 STEP    1     INCREMENT     1     STEP TIME    0.00    


                        S T E P       1     S T A T I C   A N A L Y S I S


                                                                                          

     AUTOMATIC TIME CONTROL WITH -
          A SUGGESTED INITIAL TIME INCREMENT OF                 2.00    
          AND A TOTAL TIME PERIOD OF                            2.00    
          THE MINIMUM TIME INCREMENT ALLOWED IS                1.000E-08
          THE MAXIMUM TIME INCREMENT ALLOWED IS                 2.00    

     LINEAR EQUATION SOLVER TYPE         DIRECT SPARSE

 CONVERGENCE TOLERANCE PARAMETERS FOR FORCE    
     CRITERION FOR RESIDUAL FORCE     FOR A NONLINEAR PROBLEM          5.000E-03
     CRITERION FOR DISP.    CORRECTION IN A NONLINEAR PROBLEM          1.000E-02
     INITIAL VALUE OF TIME AVERAGE FORCE                               1.000E-02
     AVERAGE FORCE     IS TIME AVERAGE FORCE    
     ALTERNATE CRIT. FOR RESIDUAL FORCE     FOR A NONLINEAR PROBLEM    2.000E-02
     CRITERION FOR ZERO FORCE     RELATIVE TO TIME AVRG. FORCE         1.000E-05
     CRITERION FOR RESIDUAL FORCE     WHEN THERE IS ZERO FLUX          1.000E-05
     CRITERION FOR DISP.    CORRECTION WHEN THERE IS ZERO FLUX         1.000E-03
     CRITERION FOR RESIDUAL FORCE     FOR A LINEAR INCREMENT           1.000E-08
     FIELD CONVERSION RATIO                                             1.00    
     CRITERION FOR ZERO FORCE     REL. TO TIME AVRG. MAX. FORCE        1.000E-05
     CRITERION FOR ZERO DISP.    RELATIVE TO CHARACTERISTIC LENGTH     1.000E-08

     VOLUMETRIC STRAIN COMPATIBILITY TOLERANCE FOR HYBRID SOLIDS       1.000E-05
     AXIAL STRAIN COMPATIBILITY TOLERANCE FOR HYBRID BEAMS             1.000E-05
     TRANS. SHEAR STRAIN COMPATIBILITY TOLERANCE FOR HYBRID BEAMS      1.000E-05
     SOFT CONTACT CONSTRAINT COMPATIBILITY TOLERANCE FOR P>P0          5.000E-03
     SOFT CONTACT CONSTRAINT COMPATIBILITY TOLERANCE FOR P=0.0         0.100    
     CONTACT FORCE ERROR TOLERANCE FOR CONVERT SDI=YES                 1.00    
     DISPLACEMENT COMPATIBILITY TOLERANCE FOR DCOUP ELEMENTS           1.000E-05
     ROTATION COMPATIBILITY TOLERANCE FOR DCOUP ELEMENTS               1.000E-05

 EQUILIBRIUM WILL BE CHECKED FOR SEVERE DISCONTINUITY ITERATIONS

 TIME INCREMENTATION CONTROL PARAMETERS:
     FIRST EQUILIBRIUM ITERATION FOR CONSECUTIVE DIVERGENCE CHECK              4
     EQUILIBRIUM ITERATION AT WHICH LOG. CONVERGENCE RATE CHECK BEGINS         8
     EQUILIBRIUM ITERATION AFTER WHICH ALTERNATE RESIDUAL IS USED              9
     MAXIMUM EQUILIBRIUM ITERATIONS ALLOWED                                   16
     EQUILIBRIUM ITERATION COUNT FOR CUT-BACK IN NEXT INCREMENT               10
     MAXIMUM EQUILIB. ITERS IN TWO INCREMENTS FOR TIME INCREMENT INCREASE      4
     MAXIMUM ITERATIONS FOR SEVERE DISCONTINUITIES                            50
     MAXIMUM ATTEMPTS ALLOWED IN AN INCREMENT                                  5
     MAXIMUM DISCON. ITERS IN TWO INCREMENTS FOR TIME INCREMENT INCREASE      50
     MAXIMUM CONTACT AUGMENTATIONS FOR *SURFACE BEHAVIOR,AUGMENTED LAGRANGE   50
     CUT-BACK FACTOR AFTER DIVERGENCE                                 0.2500    
     CUT-BACK FACTOR FOR TOO SLOW CONVERGENCE                         0.5000    
     CUT-BACK FACTOR AFTER TOO MANY EQUILIBRIUM ITERATIONS            0.7500    
     CUT-BACK FACTOR AFTER TOO MANY SEVERE DISCONTINUITY ITERATIONS   0.2500    
     CUT-BACK FACTOR AFTER PROBLEMS IN ELEMENT ASSEMBLY               0.2500    
     INCREASE FACTOR AFTER TWO INCREMENTS THAT CONVERGE QUICKLY        1.500    
     MAX. TIME INCREMENT INCREASE FACTOR ALLOWED                       1.500    
     MAX. TIME INCREMENT INCREASE FACTOR ALLOWED (DYNAMICS)            1.250    
     MAX. TIME INCREMENT INCREASE FACTOR ALLOWED (DIFFUSION)           2.000    
     MINIMUM TIME INCREMENT RATIO FOR EXTRAPOLATION TO OCCUR          0.1000    
     MAX. RATIO OF TIME INCREMENT TO STABILITY LIMIT                   1.000    
     FRACTION OF STABILITY LIMIT FOR NEW TIME INCREMENT               0.9500    
     TIME INCREMENT INCREASE FACTOR BEFORE A TIME POINT                1.000    
     GLOBAL STABILIZATION CONTROL IS NOT USED

          PRINT OF INCREMENT NUMBER, TIME, ETC., EVERY    1  INCREMENTS

     THE MAXIMUM NUMBER OF INCREMENTS IN THIS STEP IS                 1000000

          LARGE DISPLACEMENT THEORY WILL BE USED

     LINEAR EXTRAPOLATION WILL BE USED

     CHARACTERISTIC ELEMENT LENGTH      174.    

     DETAILS REGARDING ACTUAL SOLUTION WAVEFRONT REQUESTED

     DETAILED OUTPUT OF DIAGNOSTICS TO DATABASE REQUESTED

     PRINT OF INCREMENT NUMBER, TIME, ETC., TO THE MESSAGE FILE EVERY     1  INCREMENTS

     ELEMENT OPERATIONS WILL BE CARRIED OUT IN PARALLEL USING   8 THREADS ON 1 DOMAIN

     PARALLEL CONTACT TRACKING ENABLED


     COLLECTING MODEL CONSTRAINT INFORMATION FOR OVERCONSTRAINT CHECKS

     COLLECTING STEP CONSTRAINT INFORMATION FOR OVERCONSTRAINT CHECKS


  INCREMENT     1 STARTS. ATTEMPT NUMBER  1, TIME INCREMENT   2.00    
 
     INITIAL ELEMENT LOAD BALANCE
            DOMAIN    1     THREAD    NUMBER OF ELEMENTS
                              1            3848
                              2            3826
                              3            3896
                              4            3824
                              5            3928
                              6            3760
                              7            3880
                              8            3776
 
	SYMMETRIC DIRECT SPARSE SOLVER RUNNING ON
 	1 HOST:        1 MPI RANK  x 8 THREADS
 	NUMBER OF EQUATIONS:     184857
 	NUMBER OF RHS:           1
 	NUMBER OF FLOPS:         1.062e+11

     CHECK POINT   START OF SOLVER    

     CHECK POINT  END OF SOLVER       

       ELAPSED USER TIME (SEC)      =   3.9000    
       ELAPSED SYSTEM TIME (SEC)    =  0.10000    
       ELAPSED TOTAL CPU TIME (SEC) =   4.0000    
       ELAPSED WALLCLOCK TIME (SEC) =          2
 

 ***WARNING: THE SYSTEM MATRIX HAS 8 NEGATIVE EIGENVALUES.

     NEGATIVE EIGENVALUES MEAN THAT THE SYSTEM MATRIX IS NOT 
     POSITIVE DEFINITE:
     FOR EXAMPLE, A BIFURCATION (BUCKLING) LOAD MAY HAVE BEEN EXCEEDED.
   ELEMENT D14W5-1.106 IS DISTORTING EXCESSIVELY.
   ELEMENT D14W5-1.270 IS DISTORTING EXCESSIVELY.
   ELEMENT D14W5-1.270 IS DISTORTING EXCESSIVELY.
   ELEMENT D14W5-1.462 IS DISTORTING EXCESSIVELY.
   ELEMENT D14W5-1.462 IS DISTORTING EXCESSIVELY.
   ELEMENT D14W5-1.599 IS DISTORTING EXCESSIVELY.
   ELEMENT D14W5-1.599 IS DISTORTING EXCESSIVELY.
   ELEMENT D14W5-1.699 IS DISTORTING EXCESSIVELY.
   ELEMENT D14W5-1.839 IS DISTORTING EXCESSIVELY.
   ELEMENT D14W5-1.881 IS DISTORTING EXCESSIVELY.
   ELEMENT D14W5-1.881 IS DISTORTING EXCESSIVELY.
   ELEMENT D14W5-1.881 IS DISTORTING EXCESSIVELY.
   ELEMENT D14W5-1.881 IS DISTORTING EXCESSIVELY.
   ELEMENT D14W5-1.883 IS DISTORTING EXCESSIVELY.
   ELEMENT D14W5-1.883 IS DISTORTING EXCESSIVELY.
   ELEMENT D14W5-1.883 IS DISTORTING EXCESSIVELY.
   ELEMENT D14W5-1.883 IS DISTORTING EXCESSIVELY.
   ELEMENT D14W5-1.1316 IS DISTORTING EXCESSIVELY.
   ELEMENT D14W5-1.1318 IS DISTORTING EXCESSIVELY.
   ELEMENT D14W5-1.1318 IS DISTORTING EXCESSIVELY.
   ELEMENT D14W5-1.1319 IS DISTORTING EXCESSIVELY.
   ELEMENT D14W5-1.1576 IS DISTORTING EXCESSIVELY.
   ELEMENT D14W5-1.1706 IS DISTORTING EXCESSIVELY.
   ELEMENT D14W5-1.1706 IS DISTORTING EXCESSIVELY.
   ELEMENT D14W5-1.1706 IS DISTORTING EXCESSIVELY.
   ELEMENT D14W5-1.1706 IS DISTORTING EXCESSIVELY.
   ELEMENT D14W5-1.1707 IS DISTORTING EXCESSIVELY.
   ELEMENT D14W5-1.1707 IS DISTORTING EXCESSIVELY.
   ELEMENT D14W5-1.1707 IS DISTORTING EXCESSIVELY.
   ELEMENT D14W5-1.1708 IS DISTORTING EXCESSIVELY.
   ELEMENT D14W5-1.1708 IS DISTORTING EXCESSIVELY.
   ELEMENT D14W5-1.1708 IS DISTORTING EXCESSIVELY.
   ELEMENT D14W5-1.2308 IS DISTORTING EXCESSIVELY.
   ELEMENT D14W5-1.2309 IS DISTORTING EXCESSIVELY.
   ELEMENT D14W5-1.2309 IS DISTORTING EXCESSIVELY.
   ELEMENT D14W5-1.2309 IS DISTORTING EXCESSIVELY.
   ELEMENT D14W5-1.2309 IS DISTORTING EXCESSIVELY.
   ELEMENT D14W5-1.2761 IS DISTORTING EXCESSIVELY.
   ELEMENT D14W5-1.2761 IS DISTORTING EXCESSIVELY.
   ELEMENT D14W5-1.2761 IS DISTORTING EXCESSIVELY.
   ELEMENT D14W5-1.2761 IS DISTORTING EXCESSIVELY.
   ELEMENT D14W5-1.2762 IS DISTORTING EXCESSIVELY.
   ELEMENT D14W5-1.2762 IS DISTORTING EXCESSIVELY.
   ELEMENT D14W5-1.2762 IS DISTORTING EXCESSIVELY.
   ELEMENT D14W5-1.2762 IS DISTORTING EXCESSIVELY.
   ELEMENT D14W5-1.2763 IS DISTORTING EXCESSIVELY.
   ELEMENT D14W5-1.2763 IS DISTORTING EXCESSIVELY.
   ELEMENT D14W5-1.2763 IS DISTORTING EXCESSIVELY.
   ELEMENT D14W5-1.2763 IS DISTORTING EXCESSIVELY.
   ELEMENT D14W5-1.2764 IS DISTORTING EXCESSIVELY.
   ELEMENT D14W5-1.2764 IS DISTORTING EXCESSIVELY.
   ELEMENT D14W5-1.2764 IS DISTORTING EXCESSIVELY.
   ELEMENT D14W5-1.2764 IS DISTORTING EXCESSIVELY.
   ELEMENT D14W5-1.2765 IS DISTORTING EXCESSIVELY.
   ELEMENT D14W5-1.2765 IS DISTORTING EXCESSIVELY.
   ELEMENT D14W5-1.2765 IS DISTORTING EXCESSIVELY.
   ELEMENT D14W5-1.2765 IS DISTORTING EXCESSIVELY.
   ELEMENT D14W5-1.2766 IS DISTORTING EXCESSIVELY.
   ELEMENT D14W5-1.2766 IS DISTORTING EXCESSIVELY.
   ELEMENT D14W5-1.2766 IS DISTORTING EXCESSIVELY.
   ELEMENT D14W5-1.2766 IS DISTORTING EXCESSIVELY.
   ELEMENT D14W5-1.2767 IS DISTORTING EXCESSIVELY.
   ELEMENT D14W5-1.2767 IS DISTORTING EXCESSIVELY.
   ELEMENT D14W5-1.2767 IS DISTORTING EXCESSIVELY.
   ELEMENT D14W5-1.2767 IS DISTORTING EXCESSIVELY.
   ELEMENT D14W5-1.4985 IS DISTORTING EXCESSIVELY.
   ELEMENT D14W5-1.4990 IS DISTORTING EXCESSIVELY.
   ELEMENT D14W5-1.4990 IS DISTORTING EXCESSIVELY.
   ELEMENT D14W5-1.4990 IS DISTORTING EXCESSIVELY.
   ELEMENT D14W5-1.5329 IS DISTORTING EXCESSIVELY.
   ELEMENT D14W5-1.5329 IS DISTORTING EXCESSIVELY.
   ELEMENT D14W5-1.5330 IS DISTORTING EXCESSIVELY.
   ELEMENT D14W5-1.5330 IS DISTORTING EXCESSIVELY.
   ELEMENT D14W5-1.5330 IS DISTORTING EXCESSIVELY.
   ELEMENT D14W5-1.5330 IS DISTORTING EXCESSIVELY.
   ELEMENT D14W5-1.5331 IS DISTORTING EXCESSIVELY.
   ELEMENT D14W5-1.5331 IS DISTORTING EXCESSIVELY.
   ELEMENT D14W5-1.5331 IS DISTORTING EXCESSIVELY.
   ELEMENT D14W5-1.5332 IS DISTORTING EXCESSIVELY.
   ELEMENT D14W5-1.5332 IS DISTORTING EXCESSIVELY.
   ELEMENT D14W5-1.5332 IS DISTORTING EXCESSIVELY.
   ELEMENT D14W5-1.5332 IS DISTORTING EXCESSIVELY.
   ELEMENT D14W5-1.5333 IS DISTORTING EXCESSIVELY.
   ELEMENT D14W5-1.5333 IS DISTORTING EXCESSIVELY.
   ELEMENT D14W5-1.5333 IS DISTORTING EXCESSIVELY.
   ELEMENT D14W5-1.5333 IS DISTORTING EXCESSIVELY.
   ELEMENT D14W5-1.5334 IS DISTORTING EXCESSIVELY.
   ELEMENT D14W5-1.5334 IS DISTORTING EXCESSIVELY.
   ELEMENT D14W5-1.5334 IS DISTORTING EXCESSIVELY.
   ELEMENT D14W5-1.5334 IS DISTORTING EXCESSIVELY.
   ELEMENT D14W5-1.5335 IS DISTORTING EXCESSIVELY.
   ELEMENT D14W5-1.5335 IS DISTORTING EXCESSIVELY.
   ELEMENT D14W5-1.5335 IS DISTORTING EXCESSIVELY.
   ELEMENT D14W5-1.5335 IS DISTORTING EXCESSIVELY.
   ELEMENT D14W5-1.5336 IS DISTORTING EXCESSIVELY.
   ELEMENT D14W5-1.7805 IS DISTORTING EXCESSIVELY.
   ELEMENT D14W5-1.7805 IS DISTORTING EXCESSIVELY.
   ELEMENT D14W5-1.8048 IS DISTORTING EXCESSIVELY.
   ELEMENT D14W5-1.8048 IS DISTORTING EXCESSIVELY.
   ELEMENT D14W5-1.8293 IS DISTORTING EXCESSIVELY.
   ELEMENT D14W5-1.8293 IS DISTORTING EXCESSIVELY.
   ELEMENT D14W5-1.8293 IS DISTORTING EXCESSIVELY.
   ELEMENT D14W5-1.8761 IS DISTORTING EXCESSIVELY.
   ELEMENT D14W5-1.8761 IS DISTORTING EXCESSIVELY.
   ELEMENT D14W5-1.8761 IS DISTORTING EXCESSIVELY.
   ELEMENT D14W5-1.8761 IS DISTORTING EXCESSIVELY.
   ELEMENT D14W5-1.8767 IS DISTORTING EXCESSIVELY.
   ELEMENT D14W5-1.8767 IS DISTORTING EXCESSIVELY.
   ELEMENT D14W5-1.9187 IS DISTORTING EXCESSIVELY.
   ELEMENT D14W5-1.9276 IS DISTORTING EXCESSIVELY.
   ELEMENT D14W5-1.9357 IS DISTORTING EXCESSIVELY.
   ELEMENT D14W5-1.9357 IS DISTORTING EXCESSIVELY.
   ELEMENT D14W5-1.9357 IS DISTORTING EXCESSIVELY.
   ELEMENT D14W5-1.9718 IS DISTORTING EXCESSIVELY.
   ELEMENT D14W5-1.9720 IS DISTORTING EXCESSIVELY.
   ELEMENT D14W5-1.9720 IS DISTORTING EXCESSIVELY.
   ELEMENT D14W5-1.10467 IS DISTORTING EXCESSIVELY.
   ELEMENT D14W5-1.10467 IS DISTORTING EXCESSIVELY.
   ELEMENT D14W5-1.10467 IS DISTORTING EXCESSIVELY.
   ELEMENT D14W5-1.10467 IS DISTORTING EXCESSIVELY.
   ELEMENT D14W5-1.10771 IS DISTORTING EXCESSIVELY.
   ELEMENT D14W5-1.10775 IS DISTORTING EXCESSIVELY.
   ELEMENT D14W5-1.10775 IS DISTORTING EXCESSIVELY.
   ELEMENT D14W5-1.10775 IS DISTORTING EXCESSIVELY.
   ELEMENT D14W5-1.10775 IS DISTORTING EXCESSIVELY.
   ELEMENT D14W5-1.10776 IS DISTORTING EXCESSIVELY.
   ELEMENT D14W5-1.11576 IS DISTORTING EXCESSIVELY.
   ELEMENT D14W5-1.11576 IS DISTORTING EXCESSIVELY.
   ELEMENT D14W5-1.11737 IS DISTORTING EXCESSIVELY.
   ELEMENT D14W5-1.11737 IS DISTORTING EXCESSIVELY.
   ELEMENT D14W5-1.11737 IS DISTORTING EXCESSIVELY.
   ELEMENT D14W5-1.11737 IS DISTORTING EXCESSIVELY.
   ELEMENT D14W5-1.11738 IS DISTORTING EXCESSIVELY.
   ELEMENT D14W5-1.11739 IS DISTORTING EXCESSIVELY.
   ELEMENT D14W5-1.11739 IS DISTORTING EXCESSIVELY.
   ELEMENT D14W5-1.11739 IS DISTORTING EXCESSIVELY.
   ELEMENT D14W5-1.11739 IS DISTORTING EXCESSIVELY.
   ELEMENT D14W5-1.11743 IS DISTORTING EXCESSIVELY.
   ELEMENT D14W5-1.12810 IS DISTORTING EXCESSIVELY.
   ELEMENT D14W5-1.12815 IS DISTORTING EXCESSIVELY.
   ELEMENT D14W5-1.12815 IS DISTORTING EXCESSIVELY.
   ELEMENT D14W5-1.12815 IS DISTORTING EXCESSIVELY.
   ELEMENT D14W5-1.12816 IS DISTORTING EXCESSIVELY.
   ELEMENT D14W5-1.13181 IS DISTORTING EXCESSIVELY.
   ELEMENT D14W5-1.13181 IS DISTORTING EXCESSIVELY.
   ELEMENT D14W5-1.13324 IS DISTORTING EXCESSIVELY.
   ELEMENT D14W5-1.13327 IS DISTORTING EXCESSIVELY.
   ELEMENT D14W5-1.13327 IS DISTORTING EXCESSIVELY.
   ELEMENT D14W5-1.13327 IS DISTORTING EXCESSIVELY.
   ELEMENT D14W5-1.13753 IS DISTORTING EXCESSIVELY.
   ELEMENT D14W5-1.13753 IS DISTORTING EXCESSIVELY.
   ELEMENT D14W5-1.13757 IS DISTORTING EXCESSIVELY.
   ELEMENT D14W5-1.13757 IS DISTORTING EXCESSIVELY.
   ELEMENT D14W5-1.13759 IS DISTORTING EXCESSIVELY.
   ELEMENT D14W5-1.13759 IS DISTORTING EXCESSIVELY.
   ELEMENT D14W5-1.13760 IS DISTORTING EXCESSIVELY.
   ELEMENT D14W5-1.13760 IS DISTORTING EXCESSIVELY.
   ELEMENT D14W5-1.14526 IS DISTORTING EXCESSIVELY.
   ELEMENT D14W5-1.14652 IS DISTORTING EXCESSIVELY.
   ELEMENT D14W5-1.14652 IS DISTORTING EXCESSIVELY.
   ELEMENT D14W5-1.14652 IS DISTORTING EXCESSIVELY.
   ELEMENT D14W5-1.14655 IS DISTORTING EXCESSIVELY.
   ELEMENT D14W5-1.14655 IS DISTORTING EXCESSIVELY.
   ELEMENT D14W5-1.14655 IS DISTORTING EXCESSIVELY.
   ELEMENT D14W5-1.14655 IS DISTORTING EXCESSIVELY.
   ELEMENT D14W5-1.15378 IS DISTORTING EXCESSIVELY.
   ELEMENT D14W5-1.16100 IS DISTORTING EXCESSIVELY.
   ELEMENT D14W5-1.16323 IS DISTORTING EXCESSIVELY.
   ELEMENT D14W5-1.16323 IS DISTORTING EXCESSIVELY.
   ELEMENT D14W5-1.16328 IS DISTORTING EXCESSIVELY.
   ELEMENT D14W5-1.16503 IS DISTORTING EXCESSIVELY.
   ELEMENT D14W5-1.16503 IS DISTORTING EXCESSIVELY.
   ELEMENT D14W5-1.16504 IS DISTORTING EXCESSIVELY.
   ELEMENT D14W5-1.17122 IS DISTORTING EXCESSIVELY.
   ELEMENT D14W5-1.17122 IS DISTORTING EXCESSIVELY.
   ELEMENT D14W5-1.17128 IS DISTORTING EXCESSIVELY.
   ELEMENT D14W5-1.17945 IS DISTORTING EXCESSIVELY.
   ELEMENT D14W5-1.17945 IS DISTORTING EXCESSIVELY.
   ELEMENT D14W5-1.17945 IS DISTORTING EXCESSIVELY.
   ELEMENT D14W5-1.17945 IS DISTORTING EXCESSIVELY.
   ELEMENT D14W5-1.17949 IS DISTORTING EXCESSIVELY.
   ELEMENT D14W5-1.18850 IS DISTORTING EXCESSIVELY.
   ELEMENT D14W5-1.18854 IS DISTORTING EXCESSIVELY.
   ELEMENT D14W5-1.18913 IS DISTORTING EXCESSIVELY.
   ELEMENT D14W5-1.18915 IS DISTORTING EXCESSIVELY.
   ELEMENT D14W5-1.18915 IS DISTORTING EXCESSIVELY.
   ELEMENT D14W5-1.18915 IS DISTORTING EXCESSIVELY.
   ELEMENT D14W5-1.18917 IS DISTORTING EXCESSIVELY.
   ELEMENT D14W5-1.18917 IS DISTORTING EXCESSIVELY.
   ELEMENT D14W5-1.19489 IS DISTORTING EXCESSIVELY.
   ELEMENT D14W5-1.19489 IS DISTORTING EXCESSIVELY.
   ELEMENT D14W5-1.19489 IS DISTORTING EXCESSIVELY.
   ELEMENT D14W5-1.19489 IS DISTORTING EXCESSIVELY.
   ELEMENT D14W5-1.19490 IS DISTORTING EXCESSIVELY.
   ELEMENT D14W5-1.19490 IS DISTORTING EXCESSIVELY.
   ELEMENT D14W5-1.19490 IS DISTORTING EXCESSIVELY.
   ELEMENT D14W5-1.19490 IS DISTORTING EXCESSIVELY.
   ELEMENT D14W5-1.19491 IS DISTORTING EXCESSIVELY.
   ELEMENT D14W5-1.19491 IS DISTORTING EXCESSIVELY.
   ELEMENT D14W5-1.20745 IS DISTORTING EXCESSIVELY.
   ELEMENT D14W5-1.20745 IS DISTORTING EXCESSIVELY.
   ELEMENT D14W5-1.20745 IS DISTORTING EXCESSIVELY.
   ELEMENT D14W5-1.20745 IS DISTORTING EXCESSIVELY.
   ELEMENT D14W5-1.20749 IS DISTORTING EXCESSIVELY.
   ELEMENT D14W5-1.21282 IS DISTORTING EXCESSIVELY.
   ELEMENT D14W5-1.21282 IS DISTORTING EXCESSIVELY.
   ELEMENT D14W5-1.21282 IS DISTORTING EXCESSIVELY.
   ELEMENT D14W5-1.21282 IS DISTORTING EXCESSIVELY.
   ELEMENT D14W5-1.21866 IS DISTORTING EXCESSIVELY.
   ELEMENT D14W5-1.22031 IS DISTORTING EXCESSIVELY.
   ELEMENT D14W5-1.22106 IS DISTORTING EXCESSIVELY.
   ELEMENT D14W5-1.22106 IS DISTORTING EXCESSIVELY.
   ELEMENT D14W5-1.22106 IS DISTORTING EXCESSIVELY.
   ELEMENT D14W5-1.22106 IS DISTORTING EXCESSIVELY.
   ELEMENT D14W5-1.22107 IS DISTORTING EXCESSIVELY.
   ELEMENT D14W5-1.22107 IS DISTORTING EXCESSIVELY.
   ELEMENT D14W5-1.22107 IS DISTORTING EXCESSIVELY.
   ELEMENT D14W5-1.22107 IS DISTORTING EXCESSIVELY.
   ELEMENT D14W5-1.23204 IS DISTORTING EXCESSIVELY.
   ELEMENT D14W5-1.23205 IS DISTORTING EXCESSIVELY.
   ELEMENT D14W5-1.23205 IS DISTORTING EXCESSIVELY.
   ELEMENT D14W5-1.23205 IS DISTORTING EXCESSIVELY.
   ELEMENT D14W5-1.23205 IS DISTORTING EXCESSIVELY.
   ELEMENT D14W5-1.24040 IS DISTORTING EXCESSIVELY.
   ELEMENT D14W5-1.24040 IS DISTORTING EXCESSIVELY.
   ELEMENT D14W5-1.24270 IS DISTORTING EXCESSIVELY.
   ELEMENT D14W5-1.24270 IS DISTORTING EXCESSIVELY.
   ELEMENT D14W5-1.24270 IS DISTORTING EXCESSIVELY.
   ELEMENT D14W5-1.24270 IS DISTORTING EXCESSIVELY.
   ELEMENT D14W5-1.24562 IS DISTORTING EXCESSIVELY.
   ELEMENT D14W5-1.24562 IS DISTORTING EXCESSIVELY.
   ELEMENT D14W5-1.24829 IS DISTORTING EXCESSIVELY.
   ELEMENT D14W5-1.24829 IS DISTORTING EXCESSIVELY.
   ELEMENT D14W5-1.24829 IS DISTORTING EXCESSIVELY.
   ELEMENT D14W5-1.24829 IS DISTORTING EXCESSIVELY.
   ELEMENT D14W5-1.25695 IS DISTORTING EXCESSIVELY.
   ELEMENT D14W5-1.25695 IS DISTORTING EXCESSIVELY.
   ELEMENT D14W5-1.25695 IS DISTORTING EXCESSIVELY.
   ELEMENT D14W5-1.25695 IS DISTORTING EXCESSIVELY.
   ELEMENT D14W5-1.26272 IS DISTORTING EXCESSIVELY.
   ELEMENT D14W5-1.26626 IS DISTORTING EXCESSIVELY.
   ELEMENT D14W5-1.26626 IS DISTORTING EXCESSIVELY.
   ELEMENT D14W5-1.26908 IS DISTORTING EXCESSIVELY.
   ELEMENT D14W5-1.26908 IS DISTORTING EXCESSIVELY.
   ELEMENT D14W5-1.26908 IS DISTORTING EXCESSIVELY.
   ELEMENT D14W5-1.27617 IS DISTORTING EXCESSIVELY.
   ELEMENT D14W5-1.27622 IS DISTORTING EXCESSIVELY.
   ELEMENT D14W5-1.27623 IS DISTORTING EXCESSIVELY.
   ELEMENT D14W5-1.27623 IS DISTORTING EXCESSIVELY.
   ELEMENT D14W5-1.27906 IS DISTORTING EXCESSIVELY.
   ELEMENT D14W5-1.27906 IS DISTORTING EXCESSIVELY.
   ELEMENT D14W5-1.27906 IS DISTORTING EXCESSIVELY.
   ELEMENT D14W5-1.27909 IS DISTORTING EXCESSIVELY.
   ELEMENT D14W5-1.27909 IS DISTORTING EXCESSIVELY.
   ELEMENT D14W5-1.28093 IS DISTORTING EXCESSIVELY.
   ELEMENT D14W5-1.28093 IS DISTORTING EXCESSIVELY.
   ELEMENT D14W5-1.28241 IS DISTORTING EXCESSIVELY.
   ELEMENT D14W5-1.28241 IS DISTORTING EXCESSIVELY.
   ELEMENT D14W5-1.28242 IS DISTORTING EXCESSIVELY.
   ELEMENT D14W5-1.28245 IS DISTORTING EXCESSIVELY.
   ELEMENT D14W5-1.28245 IS DISTORTING EXCESSIVELY.
   ELEMENT D14W5-1.28245 IS DISTORTING EXCESSIVELY.
   ELEMENT D14W5-1.28245 IS DISTORTING EXCESSIVELY.
   ELEMENT D14W5-1.28246 IS DISTORTING EXCESSIVELY.
   ELEMENT D14W5-1.28246 IS DISTORTING EXCESSIVELY.
   ELEMENT D14W5-1.28246 IS DISTORTING EXCESSIVELY.
   ELEMENT D14W5-1.28246 IS DISTORTING EXCESSIVELY.
   ELEMENT D14W5-1.28602 IS DISTORTING EXCESSIVELY.
   ELEMENT D14W5-1.28602 IS DISTORTING EXCESSIVELY.
   ELEMENT D14W5-1.28602 IS DISTORTING EXCESSIVELY.
   ELEMENT D14W5-1.28608 IS DISTORTING EXCESSIVELY.
   ELEMENT D14W5-1.28608 IS DISTORTING EXCESSIVELY.
   ELEMENT D14W5-1.28608 IS DISTORTING EXCESSIVELY.
   ELEMENT D14W5-1.28608 IS DISTORTING EXCESSIVELY.
   ELEMENT D14W5-1.29009 IS DISTORTING EXCESSIVELY.
   ELEMENT D14W5-1.29016 IS DISTORTING EXCESSIVELY.
   ELEMENT D14W5-1.29016 IS DISTORTING EXCESSIVELY.
   ELEMENT D14W5-1.29169 IS DISTORTING EXCESSIVELY.
   ELEMENT D14W5-1.29230 IS DISTORTING EXCESSIVELY.
   ELEMENT D14W5-1.29232 IS DISTORTING EXCESSIVELY.
   ELEMENT D14W5-1.29441 IS DISTORTING EXCESSIVELY.
   ELEMENT D14W5-1.29441 IS DISTORTING EXCESSIVELY.
   ELEMENT D14W5-1.29569 IS DISTORTING EXCESSIVELY.
   ELEMENT D14W5-1.29569 IS DISTORTING EXCESSIVELY.
   ELEMENT D14W5-1.29569 IS DISTORTING EXCESSIVELY.
   ELEMENT D14W5-1.29569 IS DISTORTING EXCESSIVELY.
   ELEMENT D14W5-1.29572 IS DISTORTING EXCESSIVELY.
   ELEMENT D14W5-1.29572 IS DISTORTING EXCESSIVELY.
   ELEMENT D14W5-1.29572 IS DISTORTING EXCESSIVELY.
   ELEMENT D14W5-1.29574 IS DISTORTING EXCESSIVELY.
   ELEMENT D14W5-1.29574 IS DISTORTING EXCESSIVELY.
   ELEMENT D14W5-1.29574 IS DISTORTING EXCESSIVELY.
   ELEMENT D14W5-1.29574 IS DISTORTING EXCESSIVELY.
   ELEMENT D14W5-1.29575 IS DISTORTING EXCESSIVELY.
   ELEMENT D14W5-1.29575 IS DISTORTING EXCESSIVELY.
   ELEMENT D14W5-1.29575 IS DISTORTING EXCESSIVELY.
   ELEMENT D14W5-1.29575 IS DISTORTING EXCESSIVELY.
   ELEMENT D14W5-1.29914 IS DISTORTING EXCESSIVELY.
   ELEMENT D14W5-1.29914 IS DISTORTING EXCESSIVELY.
   ELEMENT D14W5-1.29914 IS DISTORTING EXCESSIVELY.
   ELEMENT D14W5-1.29914 IS DISTORTING EXCESSIVELY.
   ELEMENT D14W5-1.29915 IS DISTORTING EXCESSIVELY.
   ELEMENT D14W5-1.29915 IS DISTORTING EXCESSIVELY.
   ELEMENT D14W5-1.29915 IS DISTORTING EXCESSIVELY.
   ELEMENT D14W5-1.29915 IS DISTORTING EXCESSIVELY.
   ELEMENT D14W5-1.29919 IS DISTORTING EXCESSIVELY.
   ELEMENT D14W5-1.29919 IS DISTORTING EXCESSIVELY.
   ELEMENT D14W5-1.29919 IS DISTORTING EXCESSIVELY.
   ELEMENT D14W5-1.29919 IS DISTORTING EXCESSIVELY.
   ELEMENT D14W5-1.29920 IS DISTORTING EXCESSIVELY.
   ELEMENT D14W5-1.29920 IS DISTORTING EXCESSIVELY.
   ELEMENT D14W5-1.29920 IS DISTORTING EXCESSIVELY.
   ELEMENT D14W5-1.29920 IS DISTORTING EXCESSIVELY.
   ELEMENT D14W5-1.30345 IS DISTORTING EXCESSIVELY.
   ELEMENT D14W5-1.30348 IS DISTORTING EXCESSIVELY.
   ELEMENT D14W5-1.30439 IS DISTORTING EXCESSIVELY.
   ELEMENT D14W5-1.30459 IS DISTORTING EXCESSIVELY.
   ELEMENT D14W5-1.30585 IS DISTORTING EXCESSIVELY.
   ELEMENT D14W5-1.30728 IS DISTORTING EXCESSIVELY.
   ELEMENT D14W5-1.30728 IS DISTORTING EXCESSIVELY.
   ELEMENT D14W5-1.132 IS DISTORTING EXCESSIVELY.
   ELEMENT D14W5-1.132 IS DISTORTING EXCESSIVELY.
   ELEMENT D14W5-1.132 IS DISTORTING EXCESSIVELY.
   ELEMENT D14W5-1.132 IS DISTORTING EXCESSIVELY.
   ELEMENT D14W5-1.133 IS DISTORTING EXCESSIVELY.
   ELEMENT D14W5-1.133 IS DISTORTING EXCESSIVELY.
   ELEMENT D14W5-1.133 IS DISTORTING EXCESSIVELY.
   ELEMENT D14W5-1.133 IS DISTORTING EXCESSIVELY.
   ELEMENT D14W5-1.134 IS DISTORTING EXCESSIVELY.
   ELEMENT D14W5-1.134 IS DISTORTING EXCESSIVELY.
   ELEMENT D14W5-1.134 IS DISTORTING EXCESSIVELY.
   ELEMENT D14W5-1.134 IS DISTORTING EXCESSIVELY.
   ELEMENT D14W5-1.135 IS DISTORTING EXCESSIVELY.
   ELEMENT D14W5-1.136 IS DISTORTING EXCESSIVELY.
   ELEMENT D14W5-1.136 IS DISTORTING EXCESSIVELY.
   ELEMENT D14W5-1.136 IS DISTORTING EXCESSIVELY.
   ELEMENT D14W5-1.136 IS DISTORTING EXCESSIVELY.
   ELEMENT D14W5-1.556 IS DISTORTING EXCESSIVELY.
   ELEMENT D14W5-1.556 IS DISTORTING EXCESSIVELY.
   ELEMENT D14W5-1.556 IS DISTORTING EXCESSIVELY.
   ELEMENT D14W5-1.556 IS DISTORTING EXCESSIVELY.
   ELEMENT D14W5-1.558 IS DISTORTING EXCESSIVELY.
   ELEMENT D14W5-1.558 IS DISTORTING EXCESSIVELY.
   ELEMENT D14W5-1.558 IS DISTORTING EXCESSIVELY.
   ELEMENT D14W5-1.752 IS DISTORTING EXCESSIVELY.
   ELEMENT D14W5-1.752 IS DISTORTING EXCESSIVELY.
   ELEMENT D14W5-1.875 IS DISTORTING EXCESSIVELY.
   ELEMENT D14W5-1.878 IS DISTORTING EXCESSIVELY.
   ELEMENT D14W5-1.878 IS DISTORTING EXCESSIVELY.
   ELEMENT D14W5-1.878 IS DISTORTING EXCESSIVELY.
   ELEMENT D14W5-1.878 IS DISTORTING EXCESSIVELY.
   ELEMENT D14W5-1.879 IS DISTORTING EXCESSIVELY.
   ELEMENT D14W5-1.879 IS DISTORTING EXCESSIVELY.
   ELEMENT D14W5-1.879 IS DISTORTING EXCESSIVELY.
   ELEMENT D14W5-1.879 IS DISTORTING EXCESSIVELY.
   ELEMENT D14W5-1.880 IS DISTORTING EXCESSIVELY.
   ELEMENT D14W5-1.986 IS DISTORTING EXCESSIVELY.
   ELEMENT D14W5-1.986 IS DISTORTING EXCESSIVELY.
   ELEMENT D14W5-1.986 IS DISTORTING EXCESSIVELY.
   ELEMENT D14W5-1.988 IS DISTORTING EXCESSIVELY.
   ELEMENT D14W5-1.991 IS DISTORTING EXCESSIVELY.
   ELEMENT D14W5-1.991 IS DISTORTING EXCESSIVELY.
   ELEMENT D14W5-1.991 IS DISTORTING EXCESSIVELY.
   ELEMENT D14W5-1.991 IS DISTORTING EXCESSIVELY.
   ELEMENT D14W5-1.1145 IS DISTORTING EXCESSIVELY.
   ELEMENT D14W5-1.1145 IS DISTORTING EXCESSIVELY.
   ELEMENT D14W5-1.1146 IS DISTORTING EXCESSIVELY.
   ELEMENT D14W5-1.1146 IS DISTORTING EXCESSIVELY.
   ELEMENT D14W5-1.1146 IS DISTORTING EXCESSIVELY.
   ELEMENT D14W5-1.1146 IS DISTORTING EXCESSIVELY.
   ELEMENT D14W5-1.1147 IS DISTORTING EXCESSIVELY.
   ELEMENT D14W5-1.1147 IS DISTORTING EXCESSIVELY.
   ELEMENT D14W5-1.1147 IS DISTORTING EXCESSIVELY.
   ELEMENT D14W5-1.1147 IS DISTORTING EXCESSIVELY.
   ELEMENT D14W5-1.1148 IS DISTORTING EXCESSIVELY.
   ELEMENT D14W5-1.1148 IS DISTORTING EXCESSIVELY.
   ELEMENT D14W5-1.1148 IS DISTORTING EXCESSIVELY.
   ELEMENT D14W5-1.1148 IS DISTORTING EXCESSIVELY.
   ELEMENT D14W5-1.1149 IS DISTORTING EXCESSIVELY.
   ELEMENT D14W5-1.1149 IS DISTORTING EXCESSIVELY.
   ELEMENT D14W5-1.1149 IS DISTORTING EXCESSIVELY.
   ELEMENT D14W5-1.1149 IS DISTORTING EXCESSIVELY.
   ELEMENT D14W5-1.1523 IS DISTORTING EXCESSIVELY.
   ELEMENT D14W5-1.1523 IS DISTORTING EXCESSIVELY.
   ELEMENT D14W5-1.1889 IS DISTORTING EXCESSIVELY.
   ELEMENT D14W5-1.1889 IS DISTORTING EXCESSIVELY.
   ELEMENT D14W5-1.1889 IS DISTORTING EXCESSIVELY.
   ELEMENT D14W5-1.1890 IS DISTORTING EXCESSIVELY.
   ELEMENT D14W5-1.1890 IS DISTORTING EXCESSIVELY.
   ELEMENT D14W5-1.1890 IS DISTORTING EXCESSIVELY.
   ELEMENT D14W5-1.2082 IS DISTORTING EXCESSIVELY.
   ELEMENT D14W5-1.2082 IS DISTORTING EXCESSIVELY.
   ELEMENT D14W5-1.2082 IS DISTORTING EXCESSIVELY.
   ELEMENT D14W5-1.2082 IS DISTORTING EXCESSIVELY.
   ELEMENT D14W5-1.2083 IS DISTORTING EXCESSIVELY.
   ELEMENT D14W5-1.2084 IS DISTORTING EXCESSIVELY.
   ELEMENT D14W5-1.2084 IS DISTORTING EXCESSIVELY.
   ELEMENT D14W5-1.2084 IS DISTORTING EXCESSIVELY.
   ELEMENT D14W5-1.2084 IS DISTORTING EXCESSIVELY.
   ELEMENT D14W5-1.2087 IS DISTORTING EXCESSIVELY.
   ELEMENT D14W5-1.2087 IS DISTORTING EXCESSIVELY.
   ELEMENT D14W5-1.2087 IS DISTORTING EXCESSIVELY.
   ELEMENT D14W5-1.2087 IS DISTORTING EXCESSIVELY.
   ELEMENT D14W5-1.2232 IS DISTORTING EXCESSIVELY.
   ELEMENT D14W5-1.2275 IS DISTORTING EXCESSIVELY.
   ELEMENT D14W5-1.2275 IS DISTORTING EXCESSIVELY.
   ELEMENT D14W5-1.2275 IS DISTORTING EXCESSIVELY.
   ELEMENT D14W5-1.2275 IS DISTORTING EXCESSIVELY.
   ELEMENT D14W5-1.2276 IS DISTORTING EXCESSIVELY.
   ELEMENT D14W5-1.2345 IS DISTORTING EXCESSIVELY.
   ELEMENT D14W5-1.2347 IS DISTORTING EXCESSIVELY.
   ELEMENT D14W5-1.2349 IS DISTORTING EXCESSIVELY.
   ELEMENT D14W5-1.2349 IS DISTORTING EXCESSIVELY.
   ELEMENT D14W5-1.2349 IS DISTORTING EXCESSIVELY.
   ELEMENT D14W5-1.2349 IS DISTORTING EXCESSIVELY.
   ELEMENT D14W5-1.2493 IS DISTORTING EXCESSIVELY.
   ELEMENT D14W5-1.2493 IS DISTORTING EXCESSIVELY.
   ELEMENT D14W5-1.2493 IS DISTORTING EXCESSIVELY.
   ELEMENT D14W5-1.2594 IS DISTORTING EXCESSIVELY.
   ELEMENT D14W5-1.2594 IS DISTORTING EXCESSIVELY.
   ELEMENT D14W5-1.2594 IS DISTORTING EXCESSIVELY.
   ELEMENT D14W5-1.2595 IS DISTORTING EXCESSIVELY.
   ELEMENT D14W5-1.2595 IS DISTORTING EXCESSIVELY.
   ELEMENT D14W5-1.2595 IS DISTORTING EXCESSIVELY.
   ELEMENT D14W5-1.2595 IS DISTORTING EXCESSIVELY.
   ELEMENT D14W5-1.2597 IS DISTORTING EXCESSIVELY.
   ELEMENT D14W5-1.2598 IS DISTORTING EXCESSIVELY.
   ELEMENT D14W5-1.2598 IS DISTORTING EXCESSIVELY.
   ELEMENT D14W5-1.2598 IS DISTORTING EXCESSIVELY.
   ELEMENT D14W5-1.3050 IS DISTORTING EXCESSIVELY.
   ELEMENT D14W5-1.3216 IS DISTORTING EXCESSIVELY.
   ELEMENT D14W5-1.3226 IS DISTORTING EXCESSIVELY.
   ELEMENT D14W5-1.3226 IS DISTORTING EXCESSIVELY.
   ELEMENT D14W5-1.3226 IS DISTORTING EXCESSIVELY.
   ELEMENT D14W5-1.3227 IS DISTORTING EXCESSIVELY.
   ELEMENT D14W5-1.3227 IS DISTORTING EXCESSIVELY.
   ELEMENT D14W5-1.3227 IS DISTORTING EXCESSIVELY.
   ELEMENT D14W5-1.3227 IS DISTORTING EXCESSIVELY.
   ELEMENT D14W5-1.3228 IS DISTORTING EXCESSIVELY.
   ELEMENT D14W5-1.3228 IS DISTORTING EXCESSIVELY.
   ELEMENT D14W5-1.3228 IS DISTORTING EXCESSIVELY.
   ELEMENT D14W5-1.3229 IS DISTORTING EXCESSIVELY.
   ELEMENT D14W5-1.3229 IS DISTORTING EXCESSIVELY.
   ELEMENT D14W5-1.3229 IS DISTORTING EXCESSIVELY.
   ELEMENT D14W5-1.3229 IS DISTORTING EXCESSIVELY.
   ELEMENT D14W5-1.3629 IS DISTORTING EXCESSIVELY.
   ELEMENT D14W5-1.3629 IS DISTORTING EXCESSIVELY.
   ELEMENT D14W5-1.3629 IS DISTORTING EXCESSIVELY.
   ELEMENT D14W5-1.3681 IS DISTORTING EXCESSIVELY.
   ELEMENT D14W5-1.3682 IS DISTORTING EXCESSIVELY.
   ELEMENT D14W5-1.3682 IS DISTORTING EXCESSIVELY.
   ELEMENT D14W5-1.3682 IS DISTORTING EXCESSIVELY.
   ELEMENT D14W5-1.3682 IS DISTORTING EXCESSIVELY.
   ELEMENT D14W5-1.3683 IS DISTORTING EXCESSIVELY.
   ELEMENT D14W5-1.3683 IS DISTORTING EXCESSIVELY.
   ELEMENT D14W5-1.3683 IS DISTORTING EXCESSIVELY.
   ELEMENT D14W5-1.3684 IS DISTORTING EXCESSIVELY.
   ELEMENT D14W5-1.3684 IS DISTORTING EXCESSIVELY.
   ELEMENT D14W5-1.3684 IS DISTORTING EXCESSIVELY.
   ELEMENT D14W5-1.4126 IS DISTORTING EXCESSIVELY.
   ELEMENT D14W5-1.4126 IS DISTORTING EXCESSIVELY.
   ELEMENT D14W5-1.4128 IS DISTORTING EXCESSIVELY.
   ELEMENT D14W5-1.4128 IS DISTORTING EXCESSIVELY.
   ELEMENT D14W5-1.4128 IS DISTORTING EXCESSIVELY.
   ELEMENT D14W5-1.4128 IS DISTORTING EXCESSIVELY.
   ELEMENT D14W5-1.4279 IS DISTORTING EXCESSIVELY.
   ELEMENT D14W5-1.4279 IS DISTORTING EXCESSIVELY.
   ELEMENT D14W5-1.4279 IS DISTORTING EXCESSIVELY.
   ELEMENT D14W5-1.4279 IS DISTORTING EXCESSIVELY.
   ELEMENT D14W5-1.4280 IS DISTORTING EXCESSIVELY.
   ELEMENT D14W5-1.4280 IS DISTORTING EXCESSIVELY.
   ELEMENT D14W5-1.4280 IS DISTORTING EXCESSIVELY.
   ELEMENT D14W5-1.4280 IS DISTORTING EXCESSIVELY.
   ELEMENT D14W5-1.4410 IS DISTORTING EXCESSIVELY.
   ELEMENT D14W5-1.4410 IS DISTORTING EXCESSIVELY.
   ELEMENT D14W5-1.4413 IS DISTORTING EXCESSIVELY.
   ELEMENT D14W5-1.4510 IS DISTORTING EXCESSIVELY.
   ELEMENT D14W5-1.4563 IS DISTORTING EXCESSIVELY.
   ELEMENT D14W5-1.4563 IS DISTORTING EXCESSIVELY.
   ELEMENT D14W5-1.4564 IS DISTORTING EXCESSIVELY.
   ELEMENT D14W5-1.4564 IS DISTORTING EXCESSIVELY.
   ELEMENT D14W5-1.4564 IS DISTORTING EXCESSIVELY.
   ELEMENT D14W5-1.4564 IS DISTORTING EXCESSIVELY.
   ELEMENT D14W5-1.4565 IS DISTORTING EXCESSIVELY.
   ELEMENT D14W5-1.4565 IS DISTORTING EXCESSIVELY.
   ELEMENT D14W5-1.4565 IS DISTORTING EXCESSIVELY.
   ELEMENT D14W5-1.4565 IS DISTORTING EXCESSIVELY.
   ELEMENT D14W5-1.4567 IS DISTORTING EXCESSIVELY.
   ELEMENT D14W5-1.4567 IS DISTORTING EXCESSIVELY.
   ELEMENT D14W5-1.4567 IS DISTORTING EXCESSIVELY.
   ELEMENT D14W5-1.4567 IS DISTORTING EXCESSIVELY.
   ELEMENT D14W5-1.5009 IS DISTORTING EXCESSIVELY.
   ELEMENT D14W5-1.5108 IS DISTORTING EXCESSIVELY.
   ELEMENT D14W5-1.5108 IS DISTORTING EXCESSIVELY.
   ELEMENT D14W5-1.5108 IS DISTORTING EXCESSIVELY.
   ELEMENT D14W5-1.5108 IS DISTORTING EXCESSIVELY.
   ELEMENT D14W5-1.5111 IS DISTORTING EXCESSIVELY.
   ELEMENT D14W5-1.5111 IS DISTORTING EXCESSIVELY.
   ELEMENT D14W5-1.5111 IS DISTORTING EXCESSIVELY.
   ELEMENT D14W5-1.5111 IS DISTORTING EXCESSIVELY.
   ELEMENT D14W5-1.5112 IS DISTORTING EXCESSIVELY.
   ELEMENT D14W5-1.5112 IS DISTORTING EXCESSIVELY.
   ELEMENT D14W5-1.5404 IS DISTORTING EXCESSIVELY.
   ELEMENT D14W5-1.5493 IS DISTORTING EXCESSIVELY.
   ELEMENT D14W5-1.5562 IS DISTORTING EXCESSIVELY.
   ELEMENT D14W5-1.5562 IS DISTORTING EXCESSIVELY.
   ELEMENT D14W5-1.5636 IS DISTORTING EXCESSIVELY.
   ELEMENT D14W5-1.5636 IS DISTORTING EXCESSIVELY.
   ELEMENT D14W5-1.5636 IS DISTORTING EXCESSIVELY.
   ELEMENT D14W5-1.5636 IS DISTORTING EXCESSIVELY.
   ELEMENT D14W5-1.5638 IS DISTORTING EXCESSIVELY.
   ELEMENT D14W5-1.5638 IS DISTORTING EXCESSIVELY.
   ELEMENT D14W5-1.5638 IS DISTORTING EXCESSIVELY.
   ELEMENT D14W5-1.5638 IS DISTORTING EXCESSIVELY.
   ELEMENT D14W5-1.5640 IS DISTORTING EXCESSIVELY.
   ELEMENT D14W5-1.5640 IS DISTORTING EXCESSIVELY.
   ELEMENT D14W5-1.5640 IS DISTORTING EXCESSIVELY.
   ELEMENT D14W5-1.5640 IS DISTORTING EXCESSIVELY.
   ELEMENT D14W5-1.6063 IS DISTORTING EXCESSIVELY.
   ELEMENT D14W5-1.6063 IS DISTORTING EXCESSIVELY.
   ELEMENT D14W5-1.6063 IS DISTORTING EXCESSIVELY.
   ELEMENT D14W5-1.6063 IS DISTORTING EXCESSIVELY.
   ELEMENT D14W5-1.6334 IS DISTORTING EXCESSIVELY.
   ELEMENT D14W5-1.6334 IS DISTORTING EXCESSIVELY.
   ELEMENT D14W5-1.6334 IS DISTORTING EXCESSIVELY.
   ELEMENT D14W5-1.6409 IS DISTORTING EXCESSIVELY.
   ELEMENT D14W5-1.6436 IS DISTORTING EXCESSIVELY.
   ELEMENT D14W5-1.6436 IS DISTORTING EXCESSIVELY.
   ELEMENT D14W5-1.6489 IS DISTORTING EXCESSIVELY.
   ELEMENT D14W5-1.6549 IS DISTORTING EXCESSIVELY.
   ELEMENT D14W5-1.6549 IS DISTORTING EXCESSIVELY.
   ELEMENT D14W5-1.6549 IS DISTORTING EXCESSIVELY.
   ELEMENT D14W5-1.6550 IS DISTORTING EXCESSIVELY.
   ELEMENT D14W5-1.6550 IS DISTORTING EXCESSIVELY.
   ELEMENT D14W5-1.6550 IS DISTORTING EXCESSIVELY.
   ELEMENT D14W5-1.6550 IS DISTORTING EXCESSIVELY.
   ELEMENT D14W5-1.6551 IS DISTORTING EXCESSIVELY.
   ELEMENT D14W5-1.6551 IS DISTORTING EXCESSIVELY.
   ELEMENT D14W5-1.6551 IS DISTORTING EXCESSIVELY.
   ELEMENT D14W5-1.6551 IS DISTORTING EXCESSIVELY.
   ELEMENT D14W5-1.6552 IS DISTORTING EXCESSIVELY.
   ELEMENT D14W5-1.6552 IS DISTORTING EXCESSIVELY.
   ELEMENT D14W5-1.6552 IS DISTORTING EXCESSIVELY.
   ELEMENT D14W5-1.6552 IS DISTORTING EXCESSIVELY.
   ELEMENT D14W5-1.7274 IS DISTORTING EXCESSIVELY.
   ELEMENT D14W5-1.7274 IS DISTORTING EXCESSIVELY.
   ELEMENT D14W5-1.7274 IS DISTORTING EXCESSIVELY.
   ELEMENT D14W5-1.7274 IS DISTORTING EXCESSIVELY.
   ELEMENT D14W5-1.7361 IS DISTORTING EXCESSIVELY.
   ELEMENT D14W5-1.7361 IS DISTORTING EXCESSIVELY.
   ELEMENT D14W5-1.7361 IS DISTORTING EXCESSIVELY.
   ELEMENT D14W5-1.7385 IS DISTORTING EXCESSIVELY.
   ELEMENT D14W5-1.7385 IS DISTORTING EXCESSIVELY.
   ELEMENT D14W5-1.7385 IS DISTORTING EXCESSIVELY.
   ELEMENT D14W5-1.7386 IS DISTORTING EXCESSIVELY.
   ELEMENT D14W5-1.7386 IS DISTORTING EXCESSIVELY.
   ELEMENT D14W5-1.7386 IS DISTORTING EXCESSIVELY.
   ELEMENT D14W5-1.7386 IS DISTORTING EXCESSIVELY.
   ELEMENT D14W5-1.7550 IS DISTORTING EXCESSIVELY.
   ELEMENT D14W5-1.7569 IS DISTORTING EXCESSIVELY.
   ELEMENT D14W5-1.7569 IS DISTORTING EXCESSIVELY.
   ELEMENT D14W5-1.7569 IS DISTORTING EXCESSIVELY.
   ELEMENT D14W5-1.7738 IS DISTORTING EXCESSIVELY.
   ELEMENT D14W5-1.7738 IS DISTORTING EXCESSIVELY.
   ELEMENT D14W5-1.7738 IS DISTORTING EXCESSIVELY.
   ELEMENT D14W5-1.7738 IS DISTORTING EXCESSIVELY.
   ELEMENT D14W5-1.7899 IS DISTORTING EXCESSIVELY.
   ELEMENT D14W5-1.7900 IS DISTORTING EXCESSIVELY.
   ELEMENT D14W5-1.7900 IS DISTORTING EXCESSIVELY.
   ELEMENT D14W5-1.7900 IS DISTORTING EXCESSIVELY.
   ELEMENT D14W5-1.7900 IS DISTORTING EXCESSIVELY.
   ELEMENT D14W5-1.8082 IS DISTORTING EXCESSIVELY.
   ELEMENT D14W5-1.8082 IS DISTORTING EXCESSIVELY.
   ELEMENT D14W5-1.8082 IS DISTORTING EXCESSIVELY.
   ELEMENT D14W5-1.8087 IS DISTORTING EXCESSIVELY.
   ELEMENT D14W5-1.8087 IS DISTORTING EXCESSIVELY.
   ELEMENT D14W5-1.8388 IS DISTORTING EXCESSIVELY.
   ELEMENT D14W5-1.8445 IS DISTORTING EXCESSIVELY.
   ELEMENT D14W5-1.8535 IS DISTORTING EXCESSIVELY.
   ELEMENT D14W5-1.8535 IS DISTORTING EXCESSIVELY.
   ELEMENT D14W5-1.8535 IS DISTORTING EXCESSIVELY.
   ELEMENT D14W5-1.8535 IS DISTORTING EXCESSIVELY.
   ELEMENT D14W5-1.8750 IS DISTORTING EXCESSIVELY.
   ELEMENT D14W5-1.8750 IS DISTORTING EXCESSIVELY.
   ELEMENT D14W5-1.8751 IS DISTORTING EXCESSIVELY.
   ELEMENT D14W5-1.8751 IS DISTORTING EXCESSIVELY.
   ELEMENT D14W5-1.8751 IS DISTORTING EXCESSIVELY.
   ELEMENT D14W5-1.8752 IS DISTORTING EXCESSIVELY.
   ELEMENT D14W5-1.8752 IS DISTORTING EXCESSIVELY.
   ELEMENT D14W5-1.8919 IS DISTORTING EXCESSIVELY.
   ELEMENT D14W5-1.8919 IS DISTORTING EXCESSIVELY.
   ELEMENT D14W5-1.9004 IS DISTORTING EXCESSIVELY.
   ELEMENT D14W5-1.9004 IS DISTORTING EXCESSIVELY.
   ELEMENT D14W5-1.9004 IS DISTORTING EXCESSIVELY.
   ELEMENT D14W5-1.9004 IS DISTORTING EXCESSIVELY.
   ELEMENT D14W5-1.9008 IS DISTORTING EXCESSIVELY.
   ELEMENT D14W5-1.9008 IS DISTORTING EXCESSIVELY.
   ELEMENT D14W5-1.9008 IS DISTORTING EXCESSIVELY.
   ELEMENT D14W5-1.9008 IS DISTORTING EXCESSIVELY.
   ELEMENT D14W5-1.9257 IS DISTORTING EXCESSIVELY.
   ELEMENT D14W5-1.9261 IS DISTORTING EXCESSIVELY.
   ELEMENT D14W5-1.9264 IS DISTORTING EXCESSIVELY.
   ELEMENT D14W5-1.9289 IS DISTORTING EXCESSIVELY.
   ELEMENT D14W5-1.9289 IS DISTORTING EXCESSIVELY.
   ELEMENT D14W5-1.9293 IS DISTORTING EXCESSIVELY.
   ELEMENT D14W5-1.9293 IS DISTORTING EXCESSIVELY.
   ELEMENT D14W5-1.9295 IS DISTORTING EXCESSIVELY.
   ELEMENT D14W5-1.9437 IS DISTORTING EXCESSIVELY.
   ELEMENT D14W5-1.9437 IS DISTORTING EXCESSIVELY.
   ELEMENT D14W5-1.9437 IS DISTORTING EXCESSIVELY.
   ELEMENT D14W5-1.9437 IS DISTORTING EXCESSIVELY.
   ELEMENT D14W5-1.9438 IS DISTORTING EXCESSIVELY.
   ELEMENT D14W5-1.9438 IS DISTORTING EXCESSIVELY.
   ELEMENT D14W5-1.9438 IS DISTORTING EXCESSIVELY.
   ELEMENT D14W5-1.9779 IS DISTORTING EXCESSIVELY.
   ELEMENT D14W5-1.9779 IS DISTORTING EXCESSIVELY.
   ELEMENT D14W5-1.9870 IS DISTORTING EXCESSIVELY.
   ELEMENT D14W5-1.9870 IS DISTORTING EXCESSIVELY.
   ELEMENT D14W5-1.9870 IS DISTORTING EXCESSIVELY.
   ELEMENT D14W5-1.9870 IS DISTORTING EXCESSIVELY.
   ELEMENT D14W5-1.10386 IS DISTORTING EXCESSIVELY.
   ELEMENT D14W5-1.10386 IS DISTORTING EXCESSIVELY.
   ELEMENT D14W5-1.10386 IS DISTORTING EXCESSIVELY.
   ELEMENT D14W5-1.10386 IS DISTORTING EXCESSIVELY.
   ELEMENT D14W5-1.10574 IS DISTORTING EXCESSIVELY.
   ELEMENT D14W5-1.10576 IS DISTORTING EXCESSIVELY.
   ELEMENT D14W5-1.10576 IS DISTORTING EXCESSIVELY.
   ELEMENT D14W5-1.10607 IS DISTORTING EXCESSIVELY.
   ELEMENT D14W5-1.10607 IS DISTORTING EXCESSIVELY.
   ELEMENT D14W5-1.10607 IS DISTORTING EXCESSIVELY.
   ELEMENT D14W5-1.10607 IS DISTORTING EXCESSIVELY.
   ELEMENT D14W5-1.10755 IS DISTORTING EXCESSIVELY.
   ELEMENT D14W5-1.10755 IS DISTORTING EXCESSIVELY.
   ELEMENT D14W5-1.10755 IS DISTORTING EXCESSIVELY.
   ELEMENT D14W5-1.10755 IS DISTORTING EXCESSIVELY.
   ELEMENT D14W5-1.10966 IS DISTORTING EXCESSIVELY.
   ELEMENT D14W5-1.10966 IS DISTORTING EXCESSIVELY.
   ELEMENT D14W5-1.10966 IS DISTORTING EXCESSIVELY.
   ELEMENT D14W5-1.10966 IS DISTORTING EXCESSIVELY.
   ELEMENT D14W5-1.11257 IS DISTORTING EXCESSIVELY.
   ELEMENT D14W5-1.11257 IS DISTORTING EXCESSIVELY.
   ELEMENT D14W5-1.11257 IS DISTORTING EXCESSIVELY.
   ELEMENT D14W5-1.11262 IS DISTORTING EXCESSIVELY.
   ELEMENT D14W5-1.11262 IS DISTORTING EXCESSIVELY.
   ELEMENT D14W5-1.11262 IS DISTORTING EXCESSIVELY.
   ELEMENT D14W5-1.11262 IS DISTORTING EXCESSIVELY.
   ELEMENT D14W5-1.11479 IS DISTORTING EXCESSIVELY.
   ELEMENT D14W5-1.11505 IS DISTORTING EXCESSIVELY.
   ELEMENT D14W5-1.11505 IS DISTORTING EXCESSIVELY.
   ELEMENT D14W5-1.11505 IS DISTORTING EXCESSIVELY.
   ELEMENT D14W5-1.11505 IS DISTORTING EXCESSIVELY.
   ELEMENT D14W5-1.11683 IS DISTORTING EXCESSIVELY.
   ELEMENT D14W5-1.11683 IS DISTORTING EXCESSIVELY.
   ELEMENT D14W5-1.11683 IS DISTORTING EXCESSIVELY.
   ELEMENT D14W5-1.11683 IS DISTORTING EXCESSIVELY.
   ELEMENT D14W5-1.11686 IS DISTORTING EXCESSIVELY.
   ELEMENT D14W5-1.11686 IS DISTORTING EXCESSIVELY.
   ELEMENT D14W5-1.11686 IS DISTORTING EXCESSIVELY.
   ELEMENT D14W5-1.11686 IS DISTORTING EXCESSIVELY.
   ELEMENT D14W5-1.11877 IS DISTORTING EXCESSIVELY.
   ELEMENT D14W5-1.11881 IS DISTORTING EXCESSIVELY.
   ELEMENT D14W5-1.11881 IS DISTORTING EXCESSIVELY.
   ELEMENT D14W5-1.11881 IS DISTORTING EXCESSIVELY.
   ELEMENT D14W5-1.11881 IS DISTORTING EXCESSIVELY.
   ELEMENT D14W5-1.11882 IS DISTORTING EXCESSIVELY.
   ELEMENT D14W5-1.11882 IS DISTORTING EXCESSIVELY.
   ELEMENT D14W5-1.11882 IS DISTORTING EXCESSIVELY.
   ELEMENT D14W5-1.11882 IS DISTORTING EXCESSIVELY.
   ELEMENT D14W5-1.11886 IS DISTORTING EXCESSIVELY.
   ELEMENT D14W5-1.11886 IS DISTORTING EXCESSIVELY.
   ELEMENT D14W5-1.11886 IS DISTORTING EXCESSIVELY.
   ELEMENT D14W5-1.11886 IS DISTORTING EXCESSIVELY.
   ELEMENT D14W5-1.11887 IS DISTORTING EXCESSIVELY.
   ELEMENT D14W5-1.11887 IS DISTORTING EXCESSIVELY.
   ELEMENT D14W5-1.11887 IS DISTORTING EXCESSIVELY.
   ELEMENT D14W5-1.11887 IS DISTORTING EXCESSIVELY.
   ELEMENT D14W5-1.11888 IS DISTORTING EXCESSIVELY.
   ELEMENT D14W5-1.11888 IS DISTORTING EXCESSIVELY.
   ELEMENT D14W5-1.11888 IS DISTORTING EXCESSIVELY.
   ELEMENT D14W5-1.11888 IS DISTORTING EXCESSIVELY.
   ELEMENT D14W5-1.12802 IS DISTORTING EXCESSIVELY.
   ELEMENT D14W5-1.12802 IS DISTORTING EXCESSIVELY.
   ELEMENT D14W5-1.12802 IS DISTORTING EXCESSIVELY.
   ELEMENT D14W5-1.12802 IS DISTORTING EXCESSIVELY.
   ELEMENT D14W5-1.12805 IS DISTORTING EXCESSIVELY.
   ELEMENT D14W5-1.12805 IS DISTORTING EXCESSIVELY.
   ELEMENT D14W5-1.12805 IS DISTORTING EXCESSIVELY.
   ELEMENT D14W5-1.12807 IS DISTORTING EXCESSIVELY.
   ELEMENT D14W5-1.12807 IS DISTORTING EXCESSIVELY.
   ELEMENT D14W5-1.12807 IS DISTORTING EXCESSIVELY.
   ELEMENT D14W5-1.13068 IS DISTORTING EXCESSIVELY.
   ELEMENT D14W5-1.13068 IS DISTORTING EXCESSIVELY.
   ELEMENT D14W5-1.13068 IS DISTORTING EXCESSIVELY.
   ELEMENT D14W5-1.13068 IS DISTORTING EXCESSIVELY.
   ELEMENT D14W5-1.13069 IS DISTORTING EXCESSIVELY.
   ELEMENT D14W5-1.13226 IS DISTORTING EXCESSIVELY.
   ELEMENT D14W5-1.13226 IS DISTORTING EXCESSIVELY.
   ELEMENT D14W5-1.13226 IS DISTORTING EXCESSIVELY.
   ELEMENT D14W5-1.13270 IS DISTORTING EXCESSIVELY.
   ELEMENT D14W5-1.13307 IS DISTORTING EXCESSIVELY.
   ELEMENT D14W5-1.13307 IS DISTORTING EXCESSIVELY.
   ELEMENT D14W5-1.13307 IS DISTORTING EXCESSIVELY.
   ELEMENT D14W5-1.13309 IS DISTORTING EXCESSIVELY.
   ELEMENT D14W5-1.13309 IS DISTORTING EXCESSIVELY.
   ELEMENT D14W5-1.13309 IS DISTORTING EXCESSIVELY.
   ELEMENT D14W5-1.13309 IS DISTORTING EXCESSIVELY.
   ELEMENT D14W5-1.13311 IS DISTORTING EXCESSIVELY.
   ELEMENT D14W5-1.13311 IS DISTORTING EXCESSIVELY.
   ELEMENT D14W5-1.13311 IS DISTORTING EXCESSIVELY.
   ELEMENT D14W5-1.13312 IS DISTORTING EXCESSIVELY.
   ELEMENT D14W5-1.13924 IS DISTORTING EXCESSIVELY.
   ELEMENT D14W5-1.13924 IS DISTORTING EXCESSIVELY.
   ELEMENT D14W5-1.14089 IS DISTORTING EXCESSIVELY.
   ELEMENT D14W5-1.14089 IS DISTORTING EXCESSIVELY.
   ELEMENT D14W5-1.14089 IS DISTORTING EXCESSIVELY.
   ELEMENT D14W5-1.14091 IS DISTORTING EXCESSIVELY.
   ELEMENT D14W5-1.14091 IS DISTORTING EXCESSIVELY.
   ELEMENT D14W5-1.14091 IS DISTORTING EXCESSIVELY.
   ELEMENT D14W5-1.14091 IS DISTORTING EXCESSIVELY.
   ELEMENT D14W5-1.14095 IS DISTORTING EXCESSIVELY.
   ELEMENT D14W5-1.14095 IS DISTORTING EXCESSIVELY.
   ELEMENT D14W5-1.14095 IS DISTORTING EXCESSIVELY.
   ELEMENT D14W5-1.14095 IS DISTORTING EXCESSIVELY.
   ELEMENT D14W5-1.14096 IS DISTORTING EXCESSIVELY.
   ELEMENT D14W5-1.14096 IS DISTORTING EXCESSIVELY.
   ELEMENT D14W5-1.14096 IS DISTORTING EXCESSIVELY.
   ELEMENT D14W5-1.14096 IS DISTORTING EXCESSIVELY.
   ELEMENT D14W5-1.14601 IS DISTORTING EXCESSIVELY.
   ELEMENT D14W5-1.14601 IS DISTORTING EXCESSIVELY.
   ELEMENT D14W5-1.14601 IS DISTORTING EXCESSIVELY.
   ELEMENT D14W5-1.14601 IS DISTORTING EXCESSIVELY.
   ELEMENT D14W5-1.14603 IS DISTORTING EXCESSIVELY.
   ELEMENT D14W5-1.14603 IS DISTORTING EXCESSIVELY.
   ELEMENT D14W5-1.14603 IS DISTORTING EXCESSIVELY.
   ELEMENT D14W5-1.14603 IS DISTORTING EXCESSIVELY.
   ELEMENT D14W5-1.14906 IS DISTORTING EXCESSIVELY.
   ELEMENT D14W5-1.14906 IS DISTORTING EXCESSIVELY.
   ELEMENT D14W5-1.14906 IS DISTORTING EXCESSIVELY.
   ELEMENT D14W5-1.14906 IS DISTORTING EXCESSIVELY.
   ELEMENT D14W5-1.14909 IS DISTORTING EXCESSIVELY.
   ELEMENT D14W5-1.14909 IS DISTORTING EXCESSIVELY.
   ELEMENT D14W5-1.14909 IS DISTORTING EXCESSIVELY.
   ELEMENT D14W5-1.14909 IS DISTORTING EXCESSIVELY.
   ELEMENT D14W5-1.14912 IS DISTORTING EXCESSIVELY.
   ELEMENT D14W5-1.14912 IS DISTORTING EXCESSIVELY.
   ELEMENT D14W5-1.15226 IS DISTORTING EXCESSIVELY.
   ELEMENT D14W5-1.15226 IS DISTORTING EXCESSIVELY.
   ELEMENT D14W5-1.15390 IS DISTORTING EXCESSIVELY.
   ELEMENT D14W5-1.15390 IS DISTORTING EXCESSIVELY.
   ELEMENT D14W5-1.15390 IS DISTORTING EXCESSIVELY.
   ELEMENT D14W5-1.15916 IS DISTORTING EXCESSIVELY.
   ELEMENT D14W5-1.15916 IS DISTORTING EXCESSIVELY.
   ELEMENT D14W5-1.15916 IS DISTORTING EXCESSIVELY.
   ELEMENT D14W5-1.16363 IS DISTORTING EXCESSIVELY.
   ELEMENT D14W5-1.16363 IS DISTORTING EXCESSIVELY.
   ELEMENT D14W5-1.16422 IS DISTORTING EXCESSIVELY.
   ELEMENT D14W5-1.16457 IS DISTORTING EXCESSIVELY.
   ELEMENT D14W5-1.16459 IS DISTORTING EXCESSIVELY.
   ELEMENT D14W5-1.16459 IS DISTORTING EXCESSIVELY.
   ELEMENT D14W5-1.16460 IS DISTORTING EXCESSIVELY.
   ELEMENT D14W5-1.16516 IS DISTORTING EXCESSIVELY.
   ELEMENT D14W5-1.16797 IS DISTORTING EXCESSIVELY.
   ELEMENT D14W5-1.16797 IS DISTORTING EXCESSIVELY.
   ELEMENT D14W5-1.16797 IS DISTORTING EXCESSIVELY.
   ELEMENT D14W5-1.16797 IS DISTORTING EXCESSIVELY.
   ELEMENT D14W5-1.17059 IS DISTORTING EXCESSIVELY.
   ELEMENT D14W5-1.17129 IS DISTORTING EXCESSIVELY.
   ELEMENT D14W5-1.17129 IS DISTORTING EXCESSIVELY.
   ELEMENT D14W5-1.17129 IS DISTORTING EXCESSIVELY.
   ELEMENT D14W5-1.17526 IS DISTORTING EXCESSIVELY.
   ELEMENT D14W5-1.17596 IS DISTORTING EXCESSIVELY.
   ELEMENT D14W5-1.17596 IS DISTORTING EXCESSIVELY.
   ELEMENT D14W5-1.17596 IS DISTORTING EXCESSIVELY.
   ELEMENT D14W5-1.17596 IS DISTORTING EXCESSIVELY.
   ELEMENT D14W5-1.17956 IS DISTORTING EXCESSIVELY.
   ELEMENT D14W5-1.17956 IS DISTORTING EXCESSIVELY.
   ELEMENT D14W5-1.17956 IS DISTORTING EXCESSIVELY.
   ELEMENT D14W5-1.17956 IS DISTORTING EXCESSIVELY.
   ELEMENT D14W5-1.18186 IS DISTORTING EXCESSIVELY.
   ELEMENT D14W5-1.18186 IS DISTORTING EXCESSIVELY.
   ELEMENT D14W5-1.18186 IS DISTORTING EXCESSIVELY.
   ELEMENT D14W5-1.18560 IS DISTORTING EXCESSIVELY.
   ELEMENT D14W5-1.18741 IS DISTORTING EXCESSIVELY.
   ELEMENT D14W5-1.18741 IS DISTORTING EXCESSIVELY.
   ELEMENT D14W5-1.18801 IS DISTORTING EXCESSIVELY.
   ELEMENT D14W5-1.18801 IS DISTORTING EXCESSIVELY.
   ELEMENT D14W5-1.18805 IS DISTORTING EXCESSIVELY.
   ELEMENT D14W5-1.18808 IS DISTORTING EXCESSIVELY.
   ELEMENT D14W5-1.18873 IS DISTORTING EXCESSIVELY.
   ELEMENT D14W5-1.18874 IS DISTORTING EXCESSIVELY.
   ELEMENT D14W5-1.18874 IS DISTORTING EXCESSIVELY.
   ELEMENT D14W5-1.18874 IS DISTORTING EXCESSIVELY.
   ELEMENT D14W5-1.18876 IS DISTORTING EXCESSIVELY.
   ELEMENT D14W5-1.19036 IS DISTORTING EXCESSIVELY.
   ELEMENT D14W5-1.19036 IS DISTORTING EXCESSIVELY.
   ELEMENT D14W5-1.19036 IS DISTORTING EXCESSIVELY.
   ELEMENT D14W5-1.19161 IS DISTORTING EXCESSIVELY.
   ELEMENT D14W5-1.19161 IS DISTORTING EXCESSIVELY.
   ELEMENT D14W5-1.19161 IS DISTORTING EXCESSIVELY.
   ELEMENT D14W5-1.19161 IS DISTORTING EXCESSIVELY.
   ELEMENT D14W5-1.19316 IS DISTORTING EXCESSIVELY.
   ELEMENT D14W5-1.19316 IS DISTORTING EXCESSIVELY.
   ELEMENT D14W5-1.19316 IS DISTORTING EXCESSIVELY.
   ELEMENT D14W5-1.19320 IS DISTORTING EXCESSIVELY.
   ELEMENT D14W5-1.19320 IS DISTORTING EXCESSIVELY.
   ELEMENT D14W5-1.19320 IS DISTORTING EXCESSIVELY.
   ELEMENT D14W5-1.19476 IS DISTORTING EXCESSIVELY.
   ELEMENT D14W5-1.19476 IS DISTORTING EXCESSIVELY.
   ELEMENT D14W5-1.19476 IS DISTORTING EXCESSIVELY.
   ELEMENT D14W5-1.19476 IS DISTORTING EXCESSIVELY.
   ELEMENT D14W5-1.19477 IS DISTORTING EXCESSIVELY.
   ELEMENT D14W5-1.19672 IS DISTORTING EXCESSIVELY.
   ELEMENT D14W5-1.19697 IS DISTORTING EXCESSIVELY.
   ELEMENT D14W5-1.19697 IS DISTORTING EXCESSIVELY.
   ELEMENT D14W5-1.19697 IS DISTORTING EXCESSIVELY.
   ELEMENT D14W5-1.19697 IS DISTORTING EXCESSIVELY.
   ELEMENT D14W5-1.19777 IS DISTORTING EXCESSIVELY.
   ELEMENT D14W5-1.19779 IS DISTORTING EXCESSIVELY.
   ELEMENT D14W5-1.19779 IS DISTORTING EXCESSIVELY.
   ELEMENT D14W5-1.19779 IS DISTORTING EXCESSIVELY.
   ELEMENT D14W5-1.19779 IS DISTORTING EXCESSIVELY.
   ELEMENT D14W5-1.20029 IS DISTORTING EXCESSIVELY.
   ELEMENT D14W5-1.20029 IS DISTORTING EXCESSIVELY.
   ELEMENT D14W5-1.20301 IS DISTORTING EXCESSIVELY.
   ELEMENT D14W5-1.20301 IS DISTORTING EXCESSIVELY.
   ELEMENT D14W5-1.20302 IS DISTORTING EXCESSIVELY.
   ELEMENT D14W5-1.20303 IS DISTORTING EXCESSIVELY.
   ELEMENT D14W5-1.20484 IS DISTORTING EXCESSIVELY.
   ELEMENT D14W5-1.20484 IS DISTORTING EXCESSIVELY.
   ELEMENT D14W5-1.20487 IS DISTORTING EXCESSIVELY.
   ELEMENT D14W5-1.20537 IS DISTORTING EXCESSIVELY.
   ELEMENT D14W5-1.20537 IS DISTORTING EXCESSIVELY.
   ELEMENT D14W5-1.20539 IS DISTORTING EXCESSIVELY.
   ELEMENT D14W5-1.20539 IS DISTORTING EXCESSIVELY.
   ELEMENT D14W5-1.20539 IS DISTORTING EXCESSIVELY.
   ELEMENT D14W5-1.20539 IS DISTORTING EXCESSIVELY.
   ELEMENT D14W5-1.20540 IS DISTORTING EXCESSIVELY.
   ELEMENT D14W5-1.20540 IS DISTORTING EXCESSIVELY.
   ELEMENT D14W5-1.20540 IS DISTORTING EXCESSIVELY.
   ELEMENT D14W5-1.20540 IS DISTORTING EXCESSIVELY.
   ELEMENT D14W5-1.20541 IS DISTORTING EXCESSIVELY.
   ELEMENT D14W5-1.20541 IS DISTORTING EXCESSIVELY.
   ELEMENT D14W5-1.20541 IS DISTORTING EXCESSIVELY.
   ELEMENT D14W5-1.20541 IS DISTORTING EXCESSIVELY.
   ELEMENT D14W5-1.20542 IS DISTORTING EXCESSIVELY.
   ELEMENT D14W5-1.20542 IS DISTORTING EXCESSIVELY.
   ELEMENT D14W5-1.20542 IS DISTORTING EXCESSIVELY.
   ELEMENT D14W5-1.20542 IS DISTORTING EXCESSIVELY.
   ELEMENT D14W5-1.20543 IS DISTORTING EXCESSIVELY.
   ELEMENT D14W5-1.20543 IS DISTORTING EXCESSIVELY.
   ELEMENT D14W5-1.21677 IS DISTORTING EXCESSIVELY.
   ELEMENT D14W5-1.21735 IS DISTORTING EXCESSIVELY.
   ELEMENT D14W5-1.21735 IS DISTORTING EXCESSIVELY.
   ELEMENT D14W5-1.21735 IS DISTORTING EXCESSIVELY.
   ELEMENT D14W5-1.21735 IS DISTORTING EXCESSIVELY.
   ELEMENT D14W5-1.21736 IS DISTORTING EXCESSIVELY.
   ELEMENT D14W5-1.21736 IS DISTORTING EXCESSIVELY.
   ELEMENT D14W5-1.21736 IS DISTORTING EXCESSIVELY.
   ELEMENT D14W5-1.21736 IS DISTORTING EXCESSIVELY.
   ELEMENT D14W5-1.22092 IS DISTORTING EXCESSIVELY.
   ELEMENT D14W5-1.22092 IS DISTORTING EXCESSIVELY.
   ELEMENT D14W5-1.22092 IS DISTORTING EXCESSIVELY.
   ELEMENT D14W5-1.22092 IS DISTORTING EXCESSIVELY.
   ELEMENT D14W5-1.22093 IS DISTORTING EXCESSIVELY.
   ELEMENT D14W5-1.22093 IS DISTORTING EXCESSIVELY.
   ELEMENT D14W5-1.22378 IS DISTORTING EXCESSIVELY.
   ELEMENT D14W5-1.22378 IS DISTORTING EXCESSIVELY.
   ELEMENT D14W5-1.22378 IS DISTORTING EXCESSIVELY.
   ELEMENT D14W5-1.22378 IS DISTORTING EXCESSIVELY.
   ELEMENT D14W5-1.22379 IS DISTORTING EXCESSIVELY.
   ELEMENT D14W5-1.22379 IS DISTORTING EXCESSIVELY.
   ELEMENT D14W5-1.22381 IS DISTORTING EXCESSIVELY.
   ELEMENT D14W5-1.22571 IS DISTORTING EXCESSIVELY.
   ELEMENT D14W5-1.22809 IS DISTORTING EXCESSIVELY.
   ELEMENT D14W5-1.22811 IS DISTORTING EXCESSIVELY.
   ELEMENT D14W5-1.22811 IS DISTORTING EXCESSIVELY.
   ELEMENT D14W5-1.22813 IS DISTORTING EXCESSIVELY.
   ELEMENT D14W5-1.23033 IS DISTORTING EXCESSIVELY.
   ELEMENT D14W5-1.23033 IS DISTORTING EXCESSIVELY.
   ELEMENT D14W5-1.23037 IS DISTORTING EXCESSIVELY.
   ELEMENT D14W5-1.23037 IS DISTORTING EXCESSIVELY.
   ELEMENT D14W5-1.23037 IS DISTORTING EXCESSIVELY.
   ELEMENT D14W5-1.23037 IS DISTORTING EXCESSIVELY.
   ELEMENT D14W5-1.23268 IS DISTORTING EXCESSIVELY.
   ELEMENT D14W5-1.23336 IS DISTORTING EXCESSIVELY.
   ELEMENT D14W5-1.23416 IS DISTORTING EXCESSIVELY.
   ELEMENT D14W5-1.23493 IS DISTORTING EXCESSIVELY.
   ELEMENT D14W5-1.23493 IS DISTORTING EXCESSIVELY.
   ELEMENT D14W5-1.23493 IS DISTORTING EXCESSIVELY.
   ELEMENT D14W5-1.23493 IS DISTORTING EXCESSIVELY.
   ELEMENT D14W5-1.23631 IS DISTORTING EXCESSIVELY.
   ELEMENT D14W5-1.23719 IS DISTORTING EXCESSIVELY.
   ELEMENT D14W5-1.23957 IS DISTORTING EXCESSIVELY.
   ELEMENT D14W5-1.23957 IS DISTORTING EXCESSIVELY.
   ELEMENT D14W5-1.23957 IS DISTORTING EXCESSIVELY.
   ELEMENT D14W5-1.24110 IS DISTORTING EXCESSIVELY.
   ELEMENT D14W5-1.24110 IS DISTORTING EXCESSIVELY.
   ELEMENT D14W5-1.24110 IS DISTORTING EXCESSIVELY.
   ELEMENT D14W5-1.24110 IS DISTORTING EXCESSIVELY.
   ELEMENT D14W5-1.24252 IS DISTORTING EXCESSIVELY.
   ELEMENT D14W5-1.24252 IS DISTORTING EXCESSIVELY.
   ELEMENT D14W5-1.24252 IS DISTORTING EXCESSIVELY.
   ELEMENT D14W5-1.24289 IS DISTORTING EXCESSIVELY.
   ELEMENT D14W5-1.24289 IS DISTORTING EXCESSIVELY.
   ELEMENT D14W5-1.24289 IS DISTORTING EXCESSIVELY.
   ELEMENT D14W5-1.24476 IS DISTORTING EXCESSIVELY.
   ELEMENT D14W5-1.24476 IS DISTORTING EXCESSIVELY.
   ELEMENT D14W5-1.24476 IS DISTORTING EXCESSIVELY.
   ELEMENT D14W5-1.24536 IS DISTORTING EXCESSIVELY.
   ELEMENT D14W5-1.24536 IS DISTORTING EXCESSIVELY.
   ELEMENT D14W5-1.24536 IS DISTORTING EXCESSIVELY.
   ELEMENT D14W5-1.24617 IS DISTORTING EXCESSIVELY.
   ELEMENT D14W5-1.24623 IS DISTORTING EXCESSIVELY.
   ELEMENT D14W5-1.24671 IS DISTORTING EXCESSIVELY.
   ELEMENT D14W5-1.24738 IS DISTORTING EXCESSIVELY.
   ELEMENT D14W5-1.24738 IS DISTORTING EXCESSIVELY.
   ELEMENT D14W5-1.24833 IS DISTORTING EXCESSIVELY.
   ELEMENT D14W5-1.24835 IS DISTORTING EXCESSIVELY.
   ELEMENT D14W5-1.24835 IS DISTORTING EXCESSIVELY.
   ELEMENT D14W5-1.24835 IS DISTORTING EXCESSIVELY.
   ELEMENT D14W5-1.24838 IS DISTORTING EXCESSIVELY.
   ELEMENT D14W5-1.24838 IS DISTORTING EXCESSIVELY.
   ELEMENT D14W5-1.24838 IS DISTORTING EXCESSIVELY.
   ELEMENT D14W5-1.25493 IS DISTORTING EXCESSIVELY.
   ELEMENT D14W5-1.25493 IS DISTORTING EXCESSIVELY.
   ELEMENT D14W5-1.25493 IS DISTORTING EXCESSIVELY.
   ELEMENT D14W5-1.25578 IS DISTORTING EXCESSIVELY.
   ELEMENT D14W5-1.25578 IS DISTORTING EXCESSIVELY.
   ELEMENT D14W5-1.25578 IS DISTORTING EXCESSIVELY.
   ELEMENT D14W5-1.25578 IS DISTORTING EXCESSIVELY.
   ELEMENT D14W5-1.25579 IS DISTORTING EXCESSIVELY.
   ELEMENT D14W5-1.26033 IS DISTORTING EXCESSIVELY.
   ELEMENT D14W5-1.26033 IS DISTORTING EXCESSIVELY.
   ELEMENT D14W5-1.26033 IS DISTORTING EXCESSIVELY.
   ELEMENT D14W5-1.26035 IS DISTORTING EXCESSIVELY.
   ELEMENT D14W5-1.26035 IS DISTORTING EXCESSIVELY.
   ELEMENT D14W5-1.26035 IS DISTORTING EXCESSIVELY.
   ELEMENT D14W5-1.26040 IS DISTORTING EXCESSIVELY.
   ELEMENT D14W5-1.26474 IS DISTORTING EXCESSIVELY.
   ELEMENT D14W5-1.26539 IS DISTORTING EXCESSIVELY.
   ELEMENT D14W5-1.26683 IS DISTORTING EXCESSIVELY.
   ELEMENT D14W5-1.26683 IS DISTORTING EXCESSIVELY.
   ELEMENT D14W5-1.26683 IS DISTORTING EXCESSIVELY.
   ELEMENT D14W5-1.26776 IS DISTORTING EXCESSIVELY.
   ELEMENT D14W5-1.26776 IS DISTORTING EXCESSIVELY.
   ELEMENT D14W5-1.26914 IS DISTORTING EXCESSIVELY.
   ELEMENT D14W5-1.27051 IS DISTORTING EXCESSIVELY.
   ELEMENT D14W5-1.27055 IS DISTORTING EXCESSIVELY.
   ELEMENT D14W5-1.27055 IS DISTORTING EXCESSIVELY.
   ELEMENT D14W5-1.27257 IS DISTORTING EXCESSIVELY.
   ELEMENT D14W5-1.27257 IS DISTORTING EXCESSIVELY.
   ELEMENT D14W5-1.27257 IS DISTORTING EXCESSIVELY.
   ELEMENT D14W5-1.27554 IS DISTORTING EXCESSIVELY.
   ELEMENT D14W5-1.27628 IS DISTORTING EXCESSIVELY.
   ELEMENT D14W5-1.27630 IS DISTORTING EXCESSIVELY.
   ELEMENT D14W5-1.27630 IS DISTORTING EXCESSIVELY.
   ELEMENT D14W5-1.27630 IS DISTORTING EXCESSIVELY.
   ELEMENT D14W5-1.27630 IS DISTORTING EXCESSIVELY.
   ELEMENT D14W5-1.27754 IS DISTORTING EXCESSIVELY.
   ELEMENT D14W5-1.27758 IS DISTORTING EXCESSIVELY.
   ELEMENT D14W5-1.27841 IS DISTORTING EXCESSIVELY.
   ELEMENT D14W5-1.27858 IS DISTORTING EXCESSIVELY.
   ELEMENT D14W5-1.27858 IS DISTORTING EXCESSIVELY.
   ELEMENT D14W5-1.27858 IS DISTORTING EXCESSIVELY.
   ELEMENT D14W5-1.27864 IS DISTORTING EXCESSIVELY.
   ELEMENT D14W5-1.27864 IS DISTORTING EXCESSIVELY.
   ELEMENT D14W5-1.27864 IS DISTORTING EXCESSIVELY.
   ELEMENT D14W5-1.27996 IS DISTORTING EXCESSIVELY.
   ELEMENT D14W5-1.27996 IS DISTORTING EXCESSIVELY.
   ELEMENT D14W5-1.27996 IS DISTORTING EXCESSIVELY.
   ELEMENT D14W5-1.27996 IS DISTORTING EXCESSIVELY.
   ELEMENT D14W5-1.28044 IS DISTORTING EXCESSIVELY.
   ELEMENT D14W5-1.28044 IS DISTORTING EXCESSIVELY.
   ELEMENT D14W5-1.28044 IS DISTORTING EXCESSIVELY.
   ELEMENT D14W5-1.28044 IS DISTORTING EXCESSIVELY.
   ELEMENT D14W5-1.28046 IS DISTORTING EXCESSIVELY.
   ELEMENT D14W5-1.28046 IS DISTORTING EXCESSIVELY.
   ELEMENT D14W5-1.28046 IS DISTORTING EXCESSIVELY.
   ELEMENT D14W5-1.28046 IS DISTORTING EXCESSIVELY.
   ELEMENT D14W5-1.28121 IS DISTORTING EXCESSIVELY.
   ELEMENT D14W5-1.28121 IS DISTORTING EXCESSIVELY.
   ELEMENT D14W5-1.28123 IS DISTORTING EXCESSIVELY.
   ELEMENT D14W5-1.28123 IS DISTORTING EXCESSIVELY.
   ELEMENT D14W5-1.28123 IS DISTORTING EXCESSIVELY.
   ELEMENT D14W5-1.28123 IS DISTORTING EXCESSIVELY.
   ELEMENT D14W5-1.28312 IS DISTORTING EXCESSIVELY.
   ELEMENT D14W5-1.28312 IS DISTORTING EXCESSIVELY.
   ELEMENT D14W5-1.28312 IS DISTORTING EXCESSIVELY.
   ELEMENT D14W5-1.28312 IS DISTORTING EXCESSIVELY.
   ELEMENT D14W5-1.28362 IS DISTORTING EXCESSIVELY.
   ELEMENT D14W5-1.28362 IS DISTORTING EXCESSIVELY.
   ELEMENT D14W5-1.28362 IS DISTORTING EXCESSIVELY.
   ELEMENT D14W5-1.28369 IS DISTORTING EXCESSIVELY.
   ELEMENT D14W5-1.28369 IS DISTORTING EXCESSIVELY.
   ELEMENT D14W5-1.28369 IS DISTORTING EXCESSIVELY.
   ELEMENT D14W5-1.28369 IS DISTORTING EXCESSIVELY.
   ELEMENT D14W5-1.28371 IS DISTORTING EXCESSIVELY.
   ELEMENT D14W5-1.28375 IS DISTORTING EXCESSIVELY.
   ELEMENT D14W5-1.28376 IS DISTORTING EXCESSIVELY.
   ELEMENT D14W5-1.28376 IS DISTORTING EXCESSIVELY.
   ELEMENT D14W5-1.28425 IS DISTORTING EXCESSIVELY.
   ELEMENT D14W5-1.28428 IS DISTORTING EXCESSIVELY.
   ELEMENT D14W5-1.28428 IS DISTORTING EXCESSIVELY.
   ELEMENT D14W5-1.28449 IS DISTORTING EXCESSIVELY.
   ELEMENT D14W5-1.28454 IS DISTORTING EXCESSIVELY.
   ELEMENT D14W5-1.28454 IS DISTORTING EXCESSIVELY.
   ELEMENT D14W5-1.28454 IS DISTORTING EXCESSIVELY.
   ELEMENT D14W5-1.28454 IS DISTORTING EXCESSIVELY.
   ELEMENT D14W5-1.28484 IS DISTORTING EXCESSIVELY.
   ELEMENT D14W5-1.28484 IS DISTORTING EXCESSIVELY.
   ELEMENT D14W5-1.28484 IS DISTORTING EXCESSIVELY.
   ELEMENT D14W5-1.28484 IS DISTORTING EXCESSIVELY.
   ELEMENT D14W5-1.28574 IS DISTORTING EXCESSIVELY.
   ELEMENT D14W5-1.28631 IS DISTORTING EXCESSIVELY.
   ELEMENT D14W5-1.28631 IS DISTORTING EXCESSIVELY.
   ELEMENT D14W5-1.28631 IS DISTORTING EXCESSIVELY.
   ELEMENT D14W5-1.28631 IS DISTORTING EXCESSIVELY.
   ELEMENT D14W5-1.28632 IS DISTORTING EXCESSIVELY.
   ELEMENT D14W5-1.28632 IS DISTORTING EXCESSIVELY.
   ELEMENT D14W5-1.28632 IS DISTORTING EXCESSIVELY.
   ELEMENT D14W5-1.28632 IS DISTORTING EXCESSIVELY.
   ELEMENT D14W5-1.28731 IS DISTORTING EXCESSIVELY.
   ELEMENT D14W5-1.28731 IS DISTORTING EXCESSIVELY.
   ELEMENT D14W5-1.28734 IS DISTORTING EXCESSIVELY.
   ELEMENT D14W5-1.28734 IS DISTORTING EXCESSIVELY.
   ELEMENT D14W5-1.28734 IS DISTORTING EXCESSIVELY.
   ELEMENT D14W5-1.28820 IS DISTORTING EXCESSIVELY.
   ELEMENT D14W5-1.28820 IS DISTORTING EXCESSIVELY.
   ELEMENT D14W5-1.28820 IS DISTORTING EXCESSIVELY.
   ELEMENT D14W5-1.28824 IS DISTORTING EXCESSIVELY.
   ELEMENT D14W5-1.28945 IS DISTORTING EXCESSIVELY.
   ELEMENT D14W5-1.28945 IS DISTORTING EXCESSIVELY.
   ELEMENT D14W5-1.28945 IS DISTORTING EXCESSIVELY.
   ELEMENT D14W5-1.28945 IS DISTORTING EXCESSIVELY.
   ELEMENT D14W5-1.29106 IS DISTORTING EXCESSIVELY.
   ELEMENT D14W5-1.29106 IS DISTORTING EXCESSIVELY.
   ELEMENT D14W5-1.29106 IS DISTORTING EXCESSIVELY.
   ELEMENT D14W5-1.29156 IS DISTORTING EXCESSIVELY.
   ELEMENT D14W5-1.29156 IS DISTORTING EXCESSIVELY.
   ELEMENT D14W5-1.29159 IS DISTORTING EXCESSIVELY.
   ELEMENT D14W5-1.29159 IS DISTORTING EXCESSIVELY.
   ELEMENT D14W5-1.29159 IS DISTORTING EXCESSIVELY.
   ELEMENT D14W5-1.29220 IS DISTORTING EXCESSIVELY.
   ELEMENT D14W5-1.29220 IS DISTORTING EXCESSIVELY.
   ELEMENT D14W5-1.29224 IS DISTORTING EXCESSIVELY.
   ELEMENT D14W5-1.29224 IS DISTORTING EXCESSIVELY.
   ELEMENT D14W5-1.29352 IS DISTORTING EXCESSIVELY.
   ELEMENT D14W5-1.29352 IS DISTORTING EXCESSIVELY.
   ELEMENT D14W5-1.29452 IS DISTORTING EXCESSIVELY.
   ELEMENT D14W5-1.29471 IS DISTORTING EXCESSIVELY.
   ELEMENT D14W5-1.29471 IS DISTORTING EXCESSIVELY.
   ELEMENT D14W5-1.29538 IS DISTORTING EXCESSIVELY.
   ELEMENT D14W5-1.29544 IS DISTORTING EXCESSIVELY.
   ELEMENT D14W5-1.29544 IS DISTORTING EXCESSIVELY.
   ELEMENT D14W5-1.29544 IS DISTORTING EXCESSIVELY.
   ELEMENT D14W5-1.29614 IS DISTORTING EXCESSIVELY.
   ELEMENT D14W5-1.29615 IS DISTORTING EXCESSIVELY.
   ELEMENT D14W5-1.29641 IS DISTORTING EXCESSIVELY.
   ELEMENT D14W5-1.29642 IS DISTORTING EXCESSIVELY.
   ELEMENT D14W5-1.29642 IS DISTORTING EXCESSIVELY.
   ELEMENT D14W5-1.29642 IS DISTORTING EXCESSIVELY.
   ELEMENT D14W5-1.29642 IS DISTORTING EXCESSIVELY.
   ELEMENT D14W5-1.29643 IS DISTORTING EXCESSIVELY.
   ELEMENT D14W5-1.29645 IS DISTORTING EXCESSIVELY.
   ELEMENT D14W5-1.29645 IS DISTORTING EXCESSIVELY.
   ELEMENT D14W5-1.29645 IS DISTORTING EXCESSIVELY.
   ELEMENT D14W5-1.29645 IS DISTORTING EXCESSIVELY.
   ELEMENT D14W5-1.29647 IS DISTORTING EXCESSIVELY.
   ELEMENT D14W5-1.29647 IS DISTORTING EXCESSIVELY.
   ELEMENT D14W5-1.29647 IS DISTORTING EXCESSIVELY.
   ELEMENT D14W5-1.29647 IS DISTORTING EXCESSIVELY.
   ELEMENT D14W5-1.29785 IS DISTORTING EXCESSIVELY.
   ELEMENT D14W5-1.29785 IS DISTORTING EXCESSIVELY.
   ELEMENT D14W5-1.29785 IS DISTORTING EXCESSIVELY.
   ELEMENT D14W5-1.29785 IS DISTORTING EXCESSIVELY.
   ELEMENT D14W5-1.29788 IS DISTORTING EXCESSIVELY.
   ELEMENT D14W5-1.29788 IS DISTORTING EXCESSIVELY.
   ELEMENT D14W5-1.29788 IS DISTORTING EXCESSIVELY.
   ELEMENT D14W5-1.29789 IS DISTORTING EXCESSIVELY.
   ELEMENT D14W5-1.29789 IS DISTORTING EXCESSIVELY.
   ELEMENT D14W5-1.29789 IS DISTORTING EXCESSIVELY.
   ELEMENT D14W5-1.29789 IS DISTORTING EXCESSIVELY.
   ELEMENT D14W5-1.29790 IS DISTORTING EXCESSIVELY.
   ELEMENT D14W5-1.29791 IS DISTORTING EXCESSIVELY.
   ELEMENT D14W5-1.29792 IS DISTORTING EXCESSIVELY.
   ELEMENT D14W5-1.29792 IS DISTORTING EXCESSIVELY.
   ELEMENT D14W5-1.29873 IS DISTORTING EXCESSIVELY.
   ELEMENT D14W5-1.29873 IS DISTORTING EXCESSIVELY.
   ELEMENT D14W5-1.29873 IS DISTORTING EXCESSIVELY.
   ELEMENT D14W5-1.29873 IS DISTORTING EXCESSIVELY.
   ELEMENT D14W5-1.29874 IS DISTORTING EXCESSIVELY.
   ELEMENT D14W5-1.29875 IS DISTORTING EXCESSIVELY.
   ELEMENT D14W5-1.29889 IS DISTORTING EXCESSIVELY.
   ELEMENT D14W5-1.29889 IS DISTORTING EXCESSIVELY.
   ELEMENT D14W5-1.29893 IS DISTORTING EXCESSIVELY.
   ELEMENT D14W5-1.29893 IS DISTORTING EXCESSIVELY.
   ELEMENT D14W5-1.29923 IS DISTORTING EXCESSIVELY.
   ELEMENT D14W5-1.29924 IS DISTORTING EXCESSIVELY.
   ELEMENT D14W5-1.29924 IS DISTORTING EXCESSIVELY.
   ELEMENT D14W5-1.29924 IS DISTORTING EXCESSIVELY.
   ELEMENT D14W5-1.29924 IS DISTORTING EXCESSIVELY.
   ELEMENT D14W5-1.29926 IS DISTORTING EXCESSIVELY.
   ELEMENT D14W5-1.29926 IS DISTORTING EXCESSIVELY.
   ELEMENT D14W5-1.29978 IS DISTORTING EXCESSIVELY.
   ELEMENT D14W5-1.29978 IS DISTORTING EXCESSIVELY.
   ELEMENT D14W5-1.29978 IS DISTORTING EXCESSIVELY.
   ELEMENT D14W5-1.29984 IS DISTORTING EXCESSIVELY.
   ELEMENT D14W5-1.29984 IS DISTORTING EXCESSIVELY.
   ELEMENT D14W5-1.29984 IS DISTORTING EXCESSIVELY.
   ELEMENT D14W5-1.29984 IS DISTORTING EXCESSIVELY.
   ELEMENT D14W5-1.30023 IS DISTORTING EXCESSIVELY.
   ELEMENT D14W5-1.30023 IS DISTORTING EXCESSIVELY.
   ELEMENT D14W5-1.30023 IS DISTORTING EXCESSIVELY.
   ELEMENT D14W5-1.30024 IS DISTORTING EXCESSIVELY.
   ELEMENT D14W5-1.30024 IS DISTORTING EXCESSIVELY.
   ELEMENT D14W5-1.30024 IS DISTORTING EXCESSIVELY.
   ELEMENT D14W5-1.30049 IS DISTORTING EXCESSIVELY.
   ELEMENT D14W5-1.30049 IS DISTORTING EXCESSIVELY.
   ELEMENT D14W5-1.30049 IS DISTORTING EXCESSIVELY.
   ELEMENT D14W5-1.30049 IS DISTORTING EXCESSIVELY.
   ELEMENT D14W5-1.30097 IS DISTORTING EXCESSIVELY.
   ELEMENT D14W5-1.30097 IS DISTORTING EXCESSIVELY.
   ELEMENT D14W5-1.30097 IS DISTORTING EXCESSIVELY.
   ELEMENT D14W5-1.30098 IS DISTORTING EXCESSIVELY.
   ELEMENT D14W5-1.30098 IS DISTORTING EXCESSIVELY.
   ELEMENT D14W5-1.30098 IS DISTORTING EXCESSIVELY.
   ELEMENT D14W5-1.30098 IS DISTORTING EXCESSIVELY.
   ELEMENT D14W5-1.30104 IS DISTORTING EXCESSIVELY.
   ELEMENT D14W5-1.30104 IS DISTORTING EXCESSIVELY.
   ELEMENT D14W5-1.30104 IS DISTORTING EXCESSIVELY.
   ELEMENT D14W5-1.30104 IS DISTORTING EXCESSIVELY.
   ELEMENT D14W5-1.30211 IS DISTORTING EXCESSIVELY.
   ELEMENT D14W5-1.30216 IS DISTORTING EXCESSIVELY.
   ELEMENT D14W5-1.30216 IS DISTORTING EXCESSIVELY.
   ELEMENT D14W5-1.30262 IS DISTORTING EXCESSIVELY.
   ELEMENT D14W5-1.30262 IS DISTORTING EXCESSIVELY.
   ELEMENT D14W5-1.30262 IS DISTORTING EXCESSIVELY.
   ELEMENT D14W5-1.30262 IS DISTORTING EXCESSIVELY.
   ELEMENT D14W5-1.30263 IS DISTORTING EXCESSIVELY.
   ELEMENT D14W5-1.30263 IS DISTORTING EXCESSIVELY.
   ELEMENT D14W5-1.30263 IS DISTORTING EXCESSIVELY.
   ELEMENT D14W5-1.30264 IS DISTORTING EXCESSIVELY.
   ELEMENT D14W5-1.30421 IS DISTORTING EXCESSIVELY.
   ELEMENT D14W5-1.30421 IS DISTORTING EXCESSIVELY.
   ELEMENT D14W5-1.30421 IS DISTORTING EXCESSIVELY.
   ELEMENT D14W5-1.30421 IS DISTORTING EXCESSIVELY.
   ELEMENT D14W5-1.30449 IS DISTORTING EXCESSIVELY.
   ELEMENT D14W5-1.30449 IS DISTORTING EXCESSIVELY.
   ELEMENT D14W5-1.30452 IS DISTORTING EXCESSIVELY.
   ELEMENT D14W5-1.30452 IS DISTORTING EXCESSIVELY.
   ELEMENT D14W5-1.30452 IS DISTORTING EXCESSIVELY.
   ELEMENT D14W5-1.30452 IS DISTORTING EXCESSIVELY.
   ELEMENT D14W5-1.10 IS DISTORTING EXCESSIVELY.
   ELEMENT D14W5-1.10 IS DISTORTING EXCESSIVELY.
   ELEMENT D14W5-1.10 IS DISTORTING EXCESSIVELY.
   ELEMENT D14W5-1.10 IS DISTORTING EXCESSIVELY.
   ELEMENT D14W5-1.11 IS DISTORTING EXCESSIVELY.
   ELEMENT D14W5-1.11 IS DISTORTING EXCESSIVELY.
   ELEMENT D14W5-1.11 IS DISTORTING EXCESSIVELY.
   ELEMENT D14W5-1.11 IS DISTORTING EXCESSIVELY.
   ELEMENT D14W5-1.12 IS DISTORTING EXCESSIVELY.
   ELEMENT D14W5-1.12 IS DISTORTING EXCESSIVELY.
   ELEMENT D14W5-1.12 IS DISTORTING EXCESSIVELY.
   ELEMENT D14W5-1.12 IS DISTORTING EXCESSIVELY.
   ELEMENT D14W5-1.13 IS DISTORTING EXCESSIVELY.
   ELEMENT D14W5-1.13 IS DISTORTING EXCESSIVELY.
   ELEMENT D14W5-1.13 IS DISTORTING EXCESSIVELY.
   ELEMENT D14W5-1.13 IS DISTORTING EXCESSIVELY.
   ELEMENT D14W5-1.14 IS DISTORTING EXCESSIVELY.
   ELEMENT D14W5-1.14 IS DISTORTING EXCESSIVELY.
   ELEMENT D14W5-1.14 IS DISTORTING EXCESSIVELY.
   ELEMENT D14W5-1.14 IS DISTORTING EXCESSIVELY.
   ELEMENT D14W5-1.16 IS DISTORTING EXCESSIVELY.
   ELEMENT D14W5-1.16 IS DISTORTING EXCESSIVELY.
   ELEMENT D14W5-1.16 IS DISTORTING EXCESSIVELY.
   ELEMENT D14W5-1.16 IS DISTORTING EXCESSIVELY.
   ELEMENT D14W5-1.542 IS DISTORTING EXCESSIVELY.
   ELEMENT D14W5-1.542 IS DISTORTING EXCESSIVELY.
   ELEMENT D14W5-1.542 IS DISTORTING EXCESSIVELY.
   ELEMENT D14W5-1.542 IS DISTORTING EXCESSIVELY.
   ELEMENT D14W5-1.544 IS DISTORTING EXCESSIVELY.
   ELEMENT D14W5-1.544 IS DISTORTING EXCESSIVELY.
   ELEMENT D14W5-1.544 IS DISTORTING EXCESSIVELY.
   ELEMENT D14W5-1.544 IS DISTORTING EXCESSIVELY.
   ELEMENT D14W5-1.670 IS DISTORTING EXCESSIVELY.
   ELEMENT D14W5-1.688 IS DISTORTING EXCESSIVELY.
   ELEMENT D14W5-1.688 IS DISTORTING EXCESSIVELY.
   ELEMENT D14W5-1.688 IS DISTORTING EXCESSIVELY.
   ELEMENT D14W5-1.824 IS DISTORTING EXCESSIVELY.
   ELEMENT D14W5-1.824 IS DISTORTING EXCESSIVELY.
   ELEMENT D14W5-1.860 IS DISTORTING EXCESSIVELY.
   ELEMENT D14W5-1.864 IS DISTORTING EXCESSIVELY.
   ELEMENT D14W5-1.898 IS DISTORTING EXCESSIVELY.
   ELEMENT D14W5-1.900 IS DISTORTING EXCESSIVELY.
   ELEMENT D14W5-1.921 IS DISTORTING EXCESSIVELY.
   ELEMENT D14W5-1.921 IS DISTORTING EXCESSIVELY.
   ELEMENT D14W5-1.921 IS DISTORTING EXCESSIVELY.
   ELEMENT D14W5-1.921 IS DISTORTING EXCESSIVELY.
   ELEMENT D14W5-1.922 IS DISTORTING EXCESSIVELY.
   ELEMENT D14W5-1.922 IS DISTORTING EXCESSIVELY.
   ELEMENT D14W5-1.922 IS DISTORTING EXCESSIVELY.
   ELEMENT D14W5-1.922 IS DISTORTING EXCESSIVELY.
   ELEMENT D14W5-1.923 IS DISTORTING EXCESSIVELY.
   ELEMENT D14W5-1.923 IS DISTORTING EXCESSIVELY.
   ELEMENT D14W5-1.923 IS DISTORTING EXCESSIVELY.
   ELEMENT D14W5-1.923 IS DISTORTING EXCESSIVELY.
   ELEMENT D14W5-1.1086 IS DISTORTING EXCESSIVELY.
   ELEMENT D14W5-1.1086 IS DISTORTING EXCESSIVELY.
   ELEMENT D14W5-1.1087 IS DISTORTING EXCESSIVELY.
   ELEMENT D14W5-1.1087 IS DISTORTING EXCESSIVELY.
   ELEMENT D14W5-1.1088 IS DISTORTING EXCESSIVELY.
   ELEMENT D14W5-1.1088 IS DISTORTING EXCESSIVELY.
   ELEMENT D14W5-1.1278 IS DISTORTING EXCESSIVELY.
   ELEMENT D14W5-1.1302 IS DISTORTING EXCESSIVELY.
   ELEMENT D14W5-1.1345 IS DISTORTING EXCESSIVELY.
   ELEMENT D14W5-1.1369 IS DISTORTING EXCESSIVELY.
   ELEMENT D14W5-1.1371 IS DISTORTING EXCESSIVELY.
   ELEMENT D14W5-1.1372 IS DISTORTING EXCESSIVELY.
   ELEMENT D14W5-1.1372 IS DISTORTING EXCESSIVELY.
   ELEMENT D14W5-1.1474 IS DISTORTING EXCESSIVELY.
   ELEMENT D14W5-1.1476 IS DISTORTING EXCESSIVELY.
   ELEMENT D14W5-1.1476 IS DISTORTING EXCESSIVELY.
   ELEMENT D14W5-1.1476 IS DISTORTING EXCESSIVELY.
   ELEMENT D14W5-1.1476 IS DISTORTING EXCESSIVELY.
   ELEMENT D14W5-1.1477 IS DISTORTING EXCESSIVELY.
   ELEMENT D14W5-1.1477 IS DISTORTING EXCESSIVELY.
   ELEMENT D14W5-1.1477 IS DISTORTING EXCESSIVELY.
   ELEMENT D14W5-1.1477 IS DISTORTING EXCESSIVELY.
   ELEMENT D14W5-1.1478 IS DISTORTING EXCESSIVELY.
   ELEMENT D14W5-1.1478 IS DISTORTING EXCESSIVELY.
   ELEMENT D14W5-1.1479 IS DISTORTING EXCESSIVELY.
   ELEMENT D14W5-1.1479 IS DISTORTING EXCESSIVELY.
   ELEMENT D14W5-1.1952 IS DISTORTING EXCESSIVELY.
   ELEMENT D14W5-1.2065 IS DISTORTING EXCESSIVELY.
   ELEMENT D14W5-1.2065 IS DISTORTING EXCESSIVELY.
   ELEMENT D14W5-1.2066 IS DISTORTING EXCESSIVELY.
   ELEMENT D14W5-1.2066 IS DISTORTING EXCESSIVELY.
   ELEMENT D14W5-1.2066 IS DISTORTING EXCESSIVELY.
   ELEMENT D14W5-1.2066 IS DISTORTING EXCESSIVELY.
   ELEMENT D14W5-1.2067 IS DISTORTING EXCESSIVELY.
   ELEMENT D14W5-1.2067 IS DISTORTING EXCESSIVELY.
   ELEMENT D14W5-1.2067 IS DISTORTING EXCESSIVELY.
   ELEMENT D14W5-1.2067 IS DISTORTING EXCESSIVELY.
   ELEMENT D14W5-1.2072 IS DISTORTING EXCESSIVELY.
   ELEMENT D14W5-1.2072 IS DISTORTING EXCESSIVELY.
   ELEMENT D14W5-1.2170 IS DISTORTING EXCESSIVELY.
   ELEMENT D14W5-1.2170 IS DISTORTING EXCESSIVELY.
   ELEMENT D14W5-1.2170 IS DISTORTING EXCESSIVELY.
   ELEMENT D14W5-1.2174 IS DISTORTING EXCESSIVELY.
   ELEMENT D14W5-1.2252 IS DISTORTING EXCESSIVELY.
   ELEMENT D14W5-1.2252 IS DISTORTING EXCESSIVELY.
   ELEMENT D14W5-1.2252 IS DISTORTING EXCESSIVELY.
   ELEMENT D14W5-1.2297 IS DISTORTING EXCESSIVELY.
   ELEMENT D14W5-1.2297 IS DISTORTING EXCESSIVELY.
   ELEMENT D14W5-1.2323 IS DISTORTING EXCESSIVELY.
   ELEMENT D14W5-1.2323 IS DISTORTING EXCESSIVELY.
   ELEMENT D14W5-1.2326 IS DISTORTING EXCESSIVELY.
   ELEMENT D14W5-1.2477 IS DISTORTING EXCESSIVELY.
   ELEMENT D14W5-1.2477 IS DISTORTING EXCESSIVELY.
   ELEMENT D14W5-1.2478 IS DISTORTING EXCESSIVELY.
   ELEMENT D14W5-1.2518 IS DISTORTING EXCESSIVELY.
   ELEMENT D14W5-1.2518 IS DISTORTING EXCESSIVELY.
   ELEMENT D14W5-1.2519 IS DISTORTING EXCESSIVELY.
   ELEMENT D14W5-1.2665 IS DISTORTING EXCESSIVELY.
   ELEMENT D14W5-1.2665 IS DISTORTING EXCESSIVELY.
   ELEMENT D14W5-1.2665 IS DISTORTING EXCESSIVELY.
   ELEMENT D14W5-1.2837 IS DISTORTING EXCESSIVELY.
   ELEMENT D14W5-1.2837 IS DISTORTING EXCESSIVELY.
   ELEMENT D14W5-1.2837 IS DISTORTING EXCESSIVELY.
   ELEMENT D14W5-1.2837 IS DISTORTING EXCESSIVELY.
   ELEMENT D14W5-1.2838 IS DISTORTING EXCESSIVELY.
   ELEMENT D14W5-1.2838 IS DISTORTING EXCESSIVELY.
   ELEMENT D14W5-1.2838 IS DISTORTING EXCESSIVELY.
   ELEMENT D14W5-1.2838 IS DISTORTING EXCESSIVELY.
   ELEMENT D14W5-1.2839 IS DISTORTING EXCESSIVELY.
   ELEMENT D14W5-1.2839 IS DISTORTING EXCESSIVELY.
   ELEMENT D14W5-1.2839 IS DISTORTING EXCESSIVELY.
   ELEMENT D14W5-1.2839 IS DISTORTING EXCESSIVELY.
   ELEMENT D14W5-1.2840 IS DISTORTING EXCESSIVELY.
   ELEMENT D14W5-1.3265 IS DISTORTING EXCESSIVELY.
   ELEMENT D14W5-1.3265 IS DISTORTING EXCESSIVELY.
   ELEMENT D14W5-1.3265 IS DISTORTING EXCESSIVELY.
   ELEMENT D14W5-1.3265 IS DISTORTING EXCESSIVELY.
   ELEMENT D14W5-1.3266 IS DISTORTING EXCESSIVELY.
   ELEMENT D14W5-1.3267 IS DISTORTING EXCESSIVELY.
   ELEMENT D14W5-1.3267 IS DISTORTING EXCESSIVELY.
   ELEMENT D14W5-1.3267 IS DISTORTING EXCESSIVELY.
   ELEMENT D14W5-1.3268 IS DISTORTING EXCESSIVELY.
   ELEMENT D14W5-1.3268 IS DISTORTING EXCESSIVELY.
   ELEMENT D14W5-1.3268 IS DISTORTING EXCESSIVELY.
   ELEMENT D14W5-1.3270 IS DISTORTING EXCESSIVELY.
   ELEMENT D14W5-1.3270 IS DISTORTING EXCESSIVELY.
   ELEMENT D14W5-1.3270 IS DISTORTING EXCESSIVELY.
   ELEMENT D14W5-1.3270 IS DISTORTING EXCESSIVELY.
   ELEMENT D14W5-1.3271 IS DISTORTING EXCESSIVELY.
   ELEMENT D14W5-1.3271 IS DISTORTING EXCESSIVELY.
   ELEMENT D14W5-1.3271 IS DISTORTING EXCESSIVELY.
   ELEMENT D14W5-1.3271 IS DISTORTING EXCESSIVELY.
   ELEMENT D14W5-1.3729 IS DISTORTING EXCESSIVELY.
   ELEMENT D14W5-1.3729 IS DISTORTING EXCESSIVELY.
   ELEMENT D14W5-1.3729 IS DISTORTING EXCESSIVELY.
   ELEMENT D14W5-1.3729 IS DISTORTING EXCESSIVELY.
   ELEMENT D14W5-1.3731 IS DISTORTING EXCESSIVELY.
   ELEMENT D14W5-1.3889 IS DISTORTING EXCESSIVELY.
   ELEMENT D14W5-1.3889 IS DISTORTING EXCESSIVELY.
   ELEMENT D14W5-1.3890 IS DISTORTING EXCESSIVELY.
   ELEMENT D14W5-1.3963 IS DISTORTING EXCESSIVELY.
   ELEMENT D14W5-1.3993 IS DISTORTING EXCESSIVELY.
   ELEMENT D14W5-1.4050 IS DISTORTING EXCESSIVELY.
   ELEMENT D14W5-1.4051 IS DISTORTING EXCESSIVELY.
   ELEMENT D14W5-1.4051 IS DISTORTING EXCESSIVELY.
   ELEMENT D14W5-1.4155 IS DISTORTING EXCESSIVELY.
   ELEMENT D14W5-1.4155 IS DISTORTING EXCESSIVELY.
   ELEMENT D14W5-1.4155 IS DISTORTING EXCESSIVELY.
   ELEMENT D14W5-1.4155 IS DISTORTING EXCESSIVELY.
   ELEMENT D14W5-1.4319 IS DISTORTING EXCESSIVELY.
   ELEMENT D14W5-1.4320 IS DISTORTING EXCESSIVELY.
   ELEMENT D14W5-1.4320 IS DISTORTING EXCESSIVELY.
   ELEMENT D14W5-1.4374 IS DISTORTING EXCESSIVELY.
   ELEMENT D14W5-1.4374 IS DISTORTING EXCESSIVELY.
   ELEMENT D14W5-1.4376 IS DISTORTING EXCESSIVELY.
   ELEMENT D14W5-1.4402 IS DISTORTING EXCESSIVELY.
   ELEMENT D14W5-1.4402 IS DISTORTING EXCESSIVELY.
   ELEMENT D14W5-1.4402 IS DISTORTING EXCESSIVELY.
   ELEMENT D14W5-1.4463 IS DISTORTING EXCESSIVELY.
   ELEMENT D14W5-1.4463 IS DISTORTING EXCESSIVELY.
   ELEMENT D14W5-1.4463 IS DISTORTING EXCESSIVELY.
   ELEMENT D14W5-1.4645 IS DISTORTING EXCESSIVELY.
   ELEMENT D14W5-1.4719 IS DISTORTING EXCESSIVELY.
   ELEMENT D14W5-1.4719 IS DISTORTING EXCESSIVELY.
   ELEMENT D14W5-1.4763 IS DISTORTING EXCESSIVELY.
   ELEMENT D14W5-1.4763 IS DISTORTING EXCESSIVELY.
   ELEMENT D14W5-1.4763 IS DISTORTING EXCESSIVELY.
   ELEMENT D14W5-1.4763 IS DISTORTING EXCESSIVELY.
   ELEMENT D14W5-1.4891 IS DISTORTING EXCESSIVELY.
   ELEMENT D14W5-1.4891 IS DISTORTING EXCESSIVELY.
   ELEMENT D14W5-1.4891 IS DISTORTING EXCESSIVELY.
   ELEMENT D14W5-1.5031 IS DISTORTING EXCESSIVELY.
   ELEMENT D14W5-1.5031 IS DISTORTING EXCESSIVELY.
   ELEMENT D14W5-1.5032 IS DISTORTING EXCESSIVELY.
   ELEMENT D14W5-1.5153 IS DISTORTING EXCESSIVELY.
   ELEMENT D14W5-1.5154 IS DISTORTING EXCESSIVELY.
   ELEMENT D14W5-1.5154 IS DISTORTING EXCESSIVELY.
   ELEMENT D14W5-1.5257 IS DISTORTING EXCESSIVELY.
   ELEMENT D14W5-1.5258 IS DISTORTING EXCESSIVELY.
   ELEMENT D14W5-1.5258 IS DISTORTING EXCESSIVELY.
   ELEMENT D14W5-1.5258 IS DISTORTING EXCESSIVELY.
   ELEMENT D14W5-1.5259 IS DISTORTING EXCESSIVELY.
   ELEMENT D14W5-1.5421 IS DISTORTING EXCESSIVELY.
   ELEMENT D14W5-1.5421 IS DISTORTING EXCESSIVELY.
   ELEMENT D14W5-1.5422 IS DISTORTING EXCESSIVELY.
   ELEMENT D14W5-1.5422 IS DISTORTING EXCESSIVELY.
   ELEMENT D14W5-1.5422 IS DISTORTING EXCESSIVELY.
   ELEMENT D14W5-1.5422 IS DISTORTING EXCESSIVELY.
   ELEMENT D14W5-1.5641 IS DISTORTING EXCESSIVELY.
   ELEMENT D14W5-1.5641 IS DISTORTING EXCESSIVELY.
   ELEMENT D14W5-1.5641 IS DISTORTING EXCESSIVELY.
   ELEMENT D14W5-1.5642 IS DISTORTING EXCESSIVELY.
   ELEMENT D14W5-1.5642 IS DISTORTING EXCESSIVELY.
   ELEMENT D14W5-1.5642 IS DISTORTING EXCESSIVELY.
   ELEMENT D14W5-1.5642 IS DISTORTING EXCESSIVELY.
   ELEMENT D14W5-1.5643 IS DISTORTING EXCESSIVELY.
   ELEMENT D14W5-1.5643 IS DISTORTING EXCESSIVELY.
   ELEMENT D14W5-1.5643 IS DISTORTING EXCESSIVELY.
   ELEMENT D14W5-1.5643 IS DISTORTING EXCESSIVELY.
   ELEMENT D14W5-1.5945 IS DISTORTING EXCESSIVELY.
   ELEMENT D14W5-1.6010 IS DISTORTING EXCESSIVELY.
   ELEMENT D14W5-1.6095 IS DISTORTING EXCESSIVELY.
   ELEMENT D14W5-1.6095 IS DISTORTING EXCESSIVELY.
   ELEMENT D14W5-1.6115 IS DISTORTING EXCESSIVELY.
   ELEMENT D14W5-1.6116 IS DISTORTING EXCESSIVELY.
   ELEMENT D14W5-1.6116 IS DISTORTING EXCESSIVELY.
   ELEMENT D14W5-1.6118 IS DISTORTING EXCESSIVELY.
   ELEMENT D14W5-1.6370 IS DISTORTING EXCESSIVELY.
   ELEMENT D14W5-1.6370 IS DISTORTING EXCESSIVELY.
   ELEMENT D14W5-1.6371 IS DISTORTING EXCESSIVELY.
   ELEMENT D14W5-1.6371 IS DISTORTING EXCESSIVELY.
   ELEMENT D14W5-1.6372 IS DISTORTING EXCESSIVELY.
   ELEMENT D14W5-1.6553 IS DISTORTING EXCESSIVELY.
   ELEMENT D14W5-1.6553 IS DISTORTING EXCESSIVELY.
   ELEMENT D14W5-1.6553 IS DISTORTING EXCESSIVELY.
   ELEMENT D14W5-1.6553 IS DISTORTING EXCESSIVELY.
   ELEMENT D14W5-1.6558 IS DISTORTING EXCESSIVELY.
   ELEMENT D14W5-1.6558 IS DISTORTING EXCESSIVELY.
   ELEMENT D14W5-1.6558 IS DISTORTING EXCESSIVELY.
   ELEMENT D14W5-1.6558 IS DISTORTING EXCESSIVELY.
   ELEMENT D14W5-1.6559 IS DISTORTING EXCESSIVELY.
   ELEMENT D14W5-1.6559 IS DISTORTING EXCESSIVELY.
   ELEMENT D14W5-1.6559 IS DISTORTING EXCESSIVELY.
   ELEMENT D14W5-1.6939 IS DISTORTING EXCESSIVELY.
   ELEMENT D14W5-1.6939 IS DISTORTING EXCESSIVELY.
   ELEMENT D14W5-1.6939 IS DISTORTING EXCESSIVELY.
   ELEMENT D14W5-1.6939 IS DISTORTING EXCESSIVELY.
   ELEMENT D14W5-1.6941 IS DISTORTING EXCESSIVELY.
   ELEMENT D14W5-1.6941 IS DISTORTING EXCESSIVELY.
   ELEMENT D14W5-1.6941 IS DISTORTING EXCESSIVELY.
   ELEMENT D14W5-1.6941 IS DISTORTING EXCESSIVELY.
   ELEMENT D14W5-1.6942 IS DISTORTING EXCESSIVELY.
   ELEMENT D14W5-1.6942 IS DISTORTING EXCESSIVELY.
   ELEMENT D14W5-1.6942 IS DISTORTING EXCESSIVELY.
   ELEMENT D14W5-1.6942 IS DISTORTING EXCESSIVELY.
   ELEMENT D14W5-1.6943 IS DISTORTING EXCESSIVELY.
   ELEMENT D14W5-1.6943 IS DISTORTING EXCESSIVELY.
   ELEMENT D14W5-1.6943 IS DISTORTING EXCESSIVELY.
   ELEMENT D14W5-1.6943 IS DISTORTING EXCESSIVELY.
   ELEMENT D14W5-1.6944 IS DISTORTING EXCESSIVELY.
   ELEMENT D14W5-1.6944 IS DISTORTING EXCESSIVELY.
   ELEMENT D14W5-1.6944 IS DISTORTING EXCESSIVELY.
   ELEMENT D14W5-1.6944 IS DISTORTING EXCESSIVELY.
   ELEMENT D14W5-1.7589 IS DISTORTING EXCESSIVELY.
   ELEMENT D14W5-1.7589 IS DISTORTING EXCESSIVELY.
   ELEMENT D14W5-1.7589 IS DISTORTING EXCESSIVELY.
   ELEMENT D14W5-1.7710 IS DISTORTING EXCESSIVELY.
   ELEMENT D14W5-1.7710 IS DISTORTING EXCESSIVELY.
   ELEMENT D14W5-1.7710 IS DISTORTING EXCESSIVELY.
   ELEMENT D14W5-1.7710 IS DISTORTING EXCESSIVELY.
   ELEMENT D14W5-1.7712 IS DISTORTING EXCESSIVELY.
   ELEMENT D14W5-1.7712 IS DISTORTING EXCESSIVELY.
   ELEMENT D14W5-1.7712 IS DISTORTING EXCESSIVELY.
   ELEMENT D14W5-1.7949 IS DISTORTING EXCESSIVELY.
   ELEMENT D14W5-1.7949 IS DISTORTING EXCESSIVELY.
   ELEMENT D14W5-1.8051 IS DISTORTING EXCESSIVELY.
   ELEMENT D14W5-1.8077 IS DISTORTING EXCESSIVELY.
   ELEMENT D14W5-1.8077 IS DISTORTING EXCESSIVELY.
   ELEMENT D14W5-1.8077 IS DISTORTING EXCESSIVELY.
   ELEMENT D14W5-1.8077 IS DISTORTING EXCESSIVELY.
   ELEMENT D14W5-1.8079 IS DISTORTING EXCESSIVELY.
[...]
 LARGEST INCREMENT OF DISP.          132.       AT NODE      47164   DOF  1
   INSTANCE: D14W5-1                                                                         
 LARGEST CORRECTION TO DISP.       -6.474E-02   AT NODE      50253   DOF  1
   INSTANCE: D14W5-1                                                                         
          THE FORCE     EQUILIBRIUM EQUATIONS HAVE CONVERGED

 COMPATIBILITY ERRORS:
    TYPE                NUMBER EXCEEDING TOLERANCE  MAXIMUM ERROR        IN ELEMENT
 VOLUMETRIC                          0               -5.485E-09               6298
   INSTANCE: D14W5-1                                                                         
          TIME INCREMENT MAY NOW INCREASE TO    0.113    

 ITERATION SUMMARY FOR THE INCREMENT:   3 TOTAL ITERATIONS, OF WHICH
   0 ARE SEVERE DISCONTINUITY ITERATIONS AND  3 ARE EQUILIBRIUM ITERATIONS.

 TIME INCREMENT COMPLETED  7.508E-02,  FRACTION OF STEP COMPLETED  0.815    
 STEP TIME COMPLETED        1.63    ,  TOTAL TIME COMPLETED         1.63    


  INCREMENT    12 STARTS. ATTEMPT NUMBER  1, TIME INCREMENT  0.113    
 
	SYMMETRIC DIRECT SPARSE SOLVER RUNNING ON
 	1 HOST:        1 MPI RANK  x 8 THREADS
 	NUMBER OF EQUATIONS:     184857
 	NUMBER OF RHS:           1
 	NUMBER OF FLOPS:         1.062e+11

     CHECK POINT   START OF SOLVER    

     CHECK POINT  END OF SOLVER       

       ELAPSED USER TIME (SEC)      =   4.6000    
       ELAPSED SYSTEM TIME (SEC)    =   0.0000    
       ELAPSED TOTAL CPU TIME (SEC) =   4.6000    
       ELAPSED WALLCLOCK TIME (SEC) =          1
 

 ***WARNING: THE SYSTEM MATRIX HAS 2 NEGATIVE EIGENVALUES.
             EXPLANATIONS ARE SUGGESTED AFTER THE FIRST OCCURRENCE OF THIS MESSAGE.

               CONVERGENCE CHECKS FOR EQUILIBRIUM ITERATION     1


 AVERAGE FORCE                       124.       TIME AVG. FORCE        65.0    
 LARGEST RESIDUAL FORCE              174.       AT NODE      40713   DOF  1
   INSTANCE: D14W5-1                                                                         
 LARGEST INCREMENT OF DISP.         -140.       AT NODE      34749   DOF  3
   INSTANCE: D14W5-1                                                                         
 LARGEST CORRECTION TO DISP.        -79.0       AT NODE      11217   DOF  1
   INSTANCE: D14W5-1                                                                         
          FORCE     EQUILIBRIUM NOT ACHIEVED WITHIN TOLERANCE.

 COMPATIBILITY ERRORS:
    TYPE                NUMBER EXCEEDING TOLERANCE  MAXIMUM ERROR        IN ELEMENT
 VOLUMETRIC                      26803               -4.106E-03              27888
   INSTANCE: D14W5-1                                                                         
 
	SYMMETRIC DIRECT SPARSE SOLVER RUNNING ON
 	1 HOST:        1 MPI RANK  x 8 THREADS
 	NUMBER OF EQUATIONS:     184857
 	NUMBER OF RHS:           1
 	NUMBER OF FLOPS:         1.062e+11

     CHECK POINT   START OF SOLVER    

     CHECK POINT  END OF SOLVER       

       ELAPSED USER TIME (SEC)      =   4.5000    
       ELAPSED SYSTEM TIME (SEC)    =  0.10000    
       ELAPSED TOTAL CPU TIME (SEC) =   4.6000    
       ELAPSED WALLCLOCK TIME (SEC) =          2

               CONVERGENCE CHECKS FOR EQUILIBRIUM ITERATION     2


 AVERAGE FORCE                       122.       TIME AVG. FORCE        64.8    
 LARGEST RESIDUAL FORCE             -94.5       AT NODE      29625   DOF  3
   INSTANCE: D14W5-1                                                                         
 LARGEST INCREMENT OF DISP.          168.       AT NODE      47164   DOF  1
   INSTANCE: D14W5-1                                                                         
 LARGEST CORRECTION TO DISP.         52.9       AT NODE        435   DOF  1
   INSTANCE: D14W5-1                                                                         
          FORCE     EQUILIBRIUM NOT ACHIEVED WITHIN TOLERANCE.

 COMPATIBILITY ERRORS:
    TYPE                NUMBER EXCEEDING TOLERANCE  MAXIMUM ERROR        IN ELEMENT
 VOLUMETRIC                      25559               -2.358E-03               7589
   INSTANCE: D14W5-1                                                                         
 
	SYMMETRIC DIRECT SPARSE SOLVER RUNNING ON
 	1 HOST:        1 MPI RANK  x 8 THREADS
 	NUMBER OF EQUATIONS:     184857
 	NUMBER OF RHS:           1
 	NUMBER OF FLOPS:         1.062e+11

     CHECK POINT   START OF SOLVER    

     CHECK POINT  END OF SOLVER       

       ELAPSED USER TIME (SEC)      =   4.0000    
       ELAPSED SYSTEM TIME (SEC)    =   0.0000    
       ELAPSED TOTAL CPU TIME (SEC) =   4.0000    
       ELAPSED WALLCLOCK TIME (SEC) =          1

               CONVERGENCE CHECKS FOR EQUILIBRIUM ITERATION     3


 AVERAGE FORCE                       124.       TIME AVG. FORCE        65.0    
 LARGEST RESIDUAL FORCE             0.388       AT NODE      18290   DOF  3
   INSTANCE: D14W5-1                                                                         
 LARGEST INCREMENT OF DISP.          168.       AT NODE      47164   DOF  1
   INSTANCE: D14W5-1                                                                         
 LARGEST CORRECTION TO DISP.       -0.532       AT NODE        448   DOF  1
   INSTANCE: D14W5-1                                                                         
          FORCE     EQUILIBRIUM NOT ACHIEVED WITHIN TOLERANCE.

 COMPATIBILITY ERRORS:
    TYPE                NUMBER EXCEEDING TOLERANCE  MAXIMUM ERROR        IN ELEMENT
 VOLUMETRIC                          0               -7.381E-07              28814
   INSTANCE: D14W5-1                                                                         
 
	SYMMETRIC DIRECT SPARSE SOLVER RUNNING ON
 	1 HOST:        1 MPI RANK  x 8 THREADS
 	NUMBER OF EQUATIONS:     184857
 	NUMBER OF RHS:           1
 	NUMBER OF FLOPS:         1.062e+11

     CHECK POINT   START OF SOLVER    

     CHECK POINT  END OF SOLVER       

       ELAPSED USER TIME (SEC)      =   4.3000    
       ELAPSED SYSTEM TIME (SEC)    =   0.0000    
       ELAPSED TOTAL CPU TIME (SEC) =   4.3000    
       ELAPSED WALLCLOCK TIME (SEC) =          2

               CONVERGENCE CHECKS FOR EQUILIBRIUM ITERATION     4


 AVERAGE FORCE                       125.       TIME AVG. FORCE        65.0    
 LARGEST RESIDUAL FORCE             1.889E-05   AT NODE      38660   DOF  2
   INSTANCE: D14W5-1                                                                         
 LARGEST INCREMENT OF DISP.          168.       AT NODE      47164   DOF  1
   INSTANCE: D14W5-1                                                                         
 LARGEST CORRECTION TO DISP.       -4.549E-03   AT NODE      47163   DOF  1
   INSTANCE: D14W5-1                                                                         
          THE FORCE     EQUILIBRIUM EQUATIONS HAVE CONVERGED

 COMPATIBILITY ERRORS:
    TYPE                NUMBER EXCEEDING TOLERANCE  MAXIMUM ERROR        IN ELEMENT
 VOLUMETRIC                          0               -7.638E-11              13304
   INSTANCE: D14W5-1                                                                         
          TIME INCREMENT MAY NOW INCREASE TO    0.169    

 ITERATION SUMMARY FOR THE INCREMENT:   4 TOTAL ITERATIONS, OF WHICH
   0 ARE SEVERE DISCONTINUITY ITERATIONS AND  4 ARE EQUILIBRIUM ITERATIONS.

 TIME INCREMENT COMPLETED  0.113    ,  FRACTION OF STEP COMPLETED  0.872    
 STEP TIME COMPLETED        1.74    ,  TOTAL TIME COMPLETED         1.74    


  INCREMENT    13 STARTS. ATTEMPT NUMBER  1, TIME INCREMENT  0.169    
 
	SYMMETRIC DIRECT SPARSE SOLVER RUNNING ON
 	1 HOST:        1 MPI RANK  x 8 THREADS
 	NUMBER OF EQUATIONS:     184857
 	NUMBER OF RHS:           1
 	NUMBER OF FLOPS:         1.062e+11

     CHECK POINT   START OF SOLVER    

     CHECK POINT  END OF SOLVER       

       ELAPSED USER TIME (SEC)      =   4.6000    
       ELAPSED SYSTEM TIME (SEC)    =   0.0000    
       ELAPSED TOTAL CPU TIME (SEC) =   4.6000    
       ELAPSED WALLCLOCK TIME (SEC) =          2
 

 ***WARNING: THE SYSTEM MATRIX HAS 4 NEGATIVE EIGENVALUES.
             EXPLANATIONS ARE SUGGESTED AFTER THE FIRST OCCURRENCE OF THIS MESSAGE.

               CONVERGENCE CHECKS FOR EQUILIBRIUM ITERATION     1


 AVERAGE FORCE                       151.       TIME AVG. FORCE        71.6    
 LARGEST RESIDUAL FORCE              442.       AT NODE      36068   DOF  2
   INSTANCE: D14W5-1                                                                         
 LARGEST INCREMENT OF DISP.          269.       AT NODE      47685   DOF  1
   INSTANCE: D14W5-1                                                                         
 LARGEST CORRECTION TO DISP.         50.6       AT NODE      47756   DOF  3
   INSTANCE: D14W5-1                                                                         
          FORCE     EQUILIBRIUM NOT ACHIEVED WITHIN TOLERANCE.

 COMPATIBILITY ERRORS:
    TYPE                NUMBER EXCEEDING TOLERANCE  MAXIMUM ERROR        IN ELEMENT
 VOLUMETRIC                      24485               -1.004E-02               1954
   INSTANCE: D14W5-1                                                                         
 
	SYMMETRIC DIRECT SPARSE SOLVER RUNNING ON
 	1 HOST:        1 MPI RANK  x 8 THREADS
 	NUMBER OF EQUATIONS:     184857
 	NUMBER OF RHS:           1
 	NUMBER OF FLOPS:         1.062e+11

     CHECK POINT   START OF SOLVER    

     CHECK POINT  END OF SOLVER       

       ELAPSED USER TIME (SEC)      =   5.2000    
       ELAPSED SYSTEM TIME (SEC)    =   0.0000    
       ELAPSED TOTAL CPU TIME (SEC) =   5.2000    
       ELAPSED WALLCLOCK TIME (SEC) =          2

               CONVERGENCE CHECKS FOR EQUILIBRIUM ITERATION     2


 AVERAGE FORCE                       151.       TIME AVG. FORCE        71.6    
 LARGEST RESIDUAL FORCE              574.       AT NODE      32571   DOF  1
   INSTANCE: D14W5-1                                                                         
 LARGEST INCREMENT OF DISP.          200.       AT NODE      47164   DOF  1
   INSTANCE: D14W5-1                                                                         
 LARGEST CORRECTION TO DISP.        -80.9       AT NODE        434   DOF  1
   INSTANCE: D14W5-1                                                                         
          FORCE     EQUILIBRIUM NOT ACHIEVED WITHIN TOLERANCE.

 COMPATIBILITY ERRORS:
    TYPE                NUMBER EXCEEDING TOLERANCE  MAXIMUM ERROR        IN ELEMENT
 VOLUMETRIC                      27418               -7.792E-03               9378
   INSTANCE: D14W5-1                                                                         
 
	SYMMETRIC DIRECT SPARSE SOLVER RUNNING ON
 	1 HOST:        1 MPI RANK  x 8 THREADS
 	NUMBER OF EQUATIONS:     184857
 	NUMBER OF RHS:           1
 	NUMBER OF FLOPS:         1.062e+11

     CHECK POINT   START OF SOLVER    

     CHECK POINT  END OF SOLVER       

       ELAPSED USER TIME (SEC)      =   5.1000    
       ELAPSED SYSTEM TIME (SEC)    =   0.0000    
       ELAPSED TOTAL CPU TIME (SEC) =   5.1000    
       ELAPSED WALLCLOCK TIME (SEC) =          1

               CONVERGENCE CHECKS FOR EQUILIBRIUM ITERATION     3


 AVERAGE FORCE                       149.       TIME AVG. FORCE        71.5    
 LARGEST RESIDUAL FORCE             -8.12       AT NODE      32571   DOF  1
   INSTANCE: D14W5-1                                                                         
 LARGEST INCREMENT OF DISP.          202.       AT NODE      47164   DOF  1
   INSTANCE: D14W5-1                                                                         
 LARGEST CORRECTION TO DISP.         2.72       AT NODE      47450   DOF  1
   INSTANCE: D14W5-1                                                                         
          FORCE     EQUILIBRIUM NOT ACHIEVED WITHIN TOLERANCE.

 COMPATIBILITY ERRORS:
    TYPE                NUMBER EXCEEDING TOLERANCE  MAXIMUM ERROR        IN ELEMENT
 VOLUMETRIC                        198               -1.636E-05               1163
   INSTANCE: D14W5-1                                                                         
 
	SYMMETRIC DIRECT SPARSE SOLVER RUNNING ON
 	1 HOST:        1 MPI RANK  x 8 THREADS
 	NUMBER OF EQUATIONS:     184857
 	NUMBER OF RHS:           1
 	NUMBER OF FLOPS:         1.062e+11

     CHECK POINT   START OF SOLVER    

     CHECK POINT  END OF SOLVER       

       ELAPSED USER TIME (SEC)      =   4.8000    
       ELAPSED SYSTEM TIME (SEC)    =   0.0000    
       ELAPSED TOTAL CPU TIME (SEC) =   4.8000    
       ELAPSED WALLCLOCK TIME (SEC) =          2

               CONVERGENCE CHECKS FOR EQUILIBRIUM ITERATION     4


 AVERAGE FORCE                       152.       TIME AVG. FORCE        71.7    
 LARGEST RESIDUAL FORCE            -3.384E-03   AT NODE      47611   DOF  3
   INSTANCE: D14W5-1                                                                         
 LARGEST INCREMENT OF DISP.          202.       AT NODE      47164   DOF  1
   INSTANCE: D14W5-1                                                                         
 LARGEST CORRECTION TO DISP.        0.194       AT NODE        434   DOF  1
   INSTANCE: D14W5-1                                                                         
          THE FORCE     EQUILIBRIUM EQUATIONS HAVE CONVERGED

 COMPATIBILITY ERRORS:
    TYPE                NUMBER EXCEEDING TOLERANCE  MAXIMUM ERROR        IN ELEMENT
 VOLUMETRIC                          0               -6.308E-08               9378
   INSTANCE: D14W5-1                                                                         

 ITERATION SUMMARY FOR THE INCREMENT:   4 TOTAL ITERATIONS, OF WHICH
   0 ARE SEVERE DISCONTINUITY ITERATIONS AND  4 ARE EQUILIBRIUM ITERATIONS.

 TIME INCREMENT COMPLETED  0.169    ,  FRACTION OF STEP COMPLETED  0.956    
 STEP TIME COMPLETED        1.91    ,  TOTAL TIME COMPLETED         1.91    


  INCREMENT    14 STARTS. ATTEMPT NUMBER  1, TIME INCREMENT  8.787E-02
 
	SYMMETRIC DIRECT SPARSE SOLVER RUNNING ON
 	1 HOST:        1 MPI RANK  x 8 THREADS
 	NUMBER OF EQUATIONS:     184857
 	NUMBER OF RHS:           1
 	NUMBER OF FLOPS:         1.062e+11

     CHECK POINT   START OF SOLVER    

     CHECK POINT  END OF SOLVER       

       ELAPSED USER TIME (SEC)      =   4.7000    
       ELAPSED SYSTEM TIME (SEC)    =   0.0000    
       ELAPSED TOTAL CPU TIME (SEC) =   4.7000    
       ELAPSED WALLCLOCK TIME (SEC) =          2

               CONVERGENCE CHECKS FOR EQUILIBRIUM ITERATION     1


 AVERAGE FORCE                       163.       TIME AVG. FORCE        78.2    
 LARGEST RESIDUAL FORCE              52.6       AT NODE      50823   DOF  1
   INSTANCE: D14W5-1                                                                         
 LARGEST INCREMENT OF DISP.          81.3       AT NODE      47164   DOF  1
   INSTANCE: D14W5-1                                                                         
 LARGEST CORRECTION TO DISP.        -27.0       AT NODE        830   DOF  1
   INSTANCE: D14W5-1                                                                         
          FORCE     EQUILIBRIUM NOT ACHIEVED WITHIN TOLERANCE.

 COMPATIBILITY ERRORS:
    TYPE                NUMBER EXCEEDING TOLERANCE  MAXIMUM ERROR        IN ELEMENT
 VOLUMETRIC                      24077               -1.735E-03              19072
   INSTANCE: D14W5-1                                                                         
 
	SYMMETRIC DIRECT SPARSE SOLVER RUNNING ON
 	1 HOST:        1 MPI RANK  x 8 THREADS
 	NUMBER OF EQUATIONS:     184857
 	NUMBER OF RHS:           1
 	NUMBER OF FLOPS:         1.062e+11

     CHECK POINT   START OF SOLVER    

     CHECK POINT  END OF SOLVER       

       ELAPSED USER TIME (SEC)      =   4.6000    
       ELAPSED SYSTEM TIME (SEC)    =   0.0000    
       ELAPSED TOTAL CPU TIME (SEC) =   4.6000    
       ELAPSED WALLCLOCK TIME (SEC) =          2

               CONVERGENCE CHECKS FOR EQUILIBRIUM ITERATION     2


 AVERAGE FORCE                       163.       TIME AVG. FORCE        78.2    
 LARGEST RESIDUAL FORCE             -7.05       AT NODE      50917   DOF  3
   INSTANCE: D14W5-1                                                                         
 LARGEST INCREMENT OF DISP.          87.5       AT NODE      47164   DOF  1
   INSTANCE: D14W5-1                                                                         
 LARGEST CORRECTION TO DISP.         9.43       AT NODE      50952   DOF  1
   INSTANCE: D14W5-1                                                                         
          FORCE     EQUILIBRIUM NOT ACHIEVED WITHIN TOLERANCE.

 COMPATIBILITY ERRORS:
    TYPE                NUMBER EXCEEDING TOLERANCE  MAXIMUM ERROR        IN ELEMENT
 VOLUMETRIC                      10412               -9.610E-05              28015
   INSTANCE: D14W5-1                                                                         
 
	SYMMETRIC DIRECT SPARSE SOLVER RUNNING ON
 	1 HOST:        1 MPI RANK  x 8 THREADS
 	NUMBER OF EQUATIONS:     184857
 	NUMBER OF RHS:           1
 	NUMBER OF FLOPS:         1.062e+11

     CHECK POINT   START OF SOLVER    

     CHECK POINT  END OF SOLVER       

       ELAPSED USER TIME (SEC)      =   4.7000    
       ELAPSED SYSTEM TIME (SEC)    =  0.10000    
       ELAPSED TOTAL CPU TIME (SEC) =   4.8000    
       ELAPSED WALLCLOCK TIME (SEC) =          2

               CONVERGENCE CHECKS FOR EQUILIBRIUM ITERATION     3


 AVERAGE FORCE                       167.       TIME AVG. FORCE        78.5    
 LARGEST RESIDUAL FORCE            -6.939E-04   AT NODE      42376   DOF  1
   INSTANCE: D14W5-1                                                                         
 LARGEST INCREMENT OF DISP.          87.4       AT NODE      47164   DOF  1
   INSTANCE: D14W5-1                                                                         
 LARGEST CORRECTION TO DISP.       -7.280E-02   AT NODE      50328   DOF  1
   INSTANCE: D14W5-1                                                                         
          THE FORCE     EQUILIBRIUM EQUATIONS HAVE CONVERGED

 COMPATIBILITY ERRORS:
    TYPE                NUMBER EXCEEDING TOLERANCE  MAXIMUM ERROR        IN ELEMENT
 VOLUMETRIC                          0               -1.033E-08              30282
   INSTANCE: D14W5-1                                                                         

 ITERATION SUMMARY FOR THE INCREMENT:   3 TOTAL ITERATIONS, OF WHICH
   0 ARE SEVERE DISCONTINUITY ITERATIONS AND  3 ARE EQUILIBRIUM ITERATIONS.

 TIME INCREMENT COMPLETED  8.787E-02,  FRACTION OF STEP COMPLETED   1.00    
 STEP TIME COMPLETED        2.00    ,  TOTAL TIME COMPLETED         2.00    


          THE ANALYSIS HAS BEEN COMPLETED



     ANALYSIS SUMMARY:
     TOTAL OF         14  INCREMENTS
                       5  CUTBACKS IN AUTOMATIC INCREMENTATION
                      50  ITERATIONS INCLUDING CONTACT ITERATIONS IF PRESENT
                      50  PASSES THROUGH THE EQUATION SOLVER OF WHICH 
                      50  INVOLVE MATRIX DECOMPOSITION, INCLUDING
                       0  DECOMPOSITION(S) OF THE MASS MATRIX
                       1  REORDERING OF EQUATIONS TO MINIMIZE WAVEFRONT
                       0  ADDITIONAL RESIDUAL EVALUATIONS FOR LINE SEARCHES
                       0  ADDITIONAL OPERATOR EVALUATIONS FOR LINE SEARCHES
                       0  WARNING MESSAGES DURING USER INPUT PROCESSING
                      17  WARNING MESSAGES DURING ANALYSIS
                       0  ANALYSIS WARNINGS ARE NUMERICAL PROBLEM MESSAGES
                      12  ANALYSIS WARNINGS ARE NEGATIVE EIGENVALUE MESSAGES
                       0  ERROR MESSAGES



     JOB TIME SUMMARY
       USER TIME (SEC)      =   260.30    
       SYSTEM TIME (SEC)    =   2.7000    
       TOTAL CPU TIME (SEC) =   263.00    
       WALLCLOCK TIME (SEC) =        150
