 Abaqus/Standard 2022                  DATE 11-Nov-2022 TIME 16:05:30
 SUMMARY OF JOB INFORMATION:
 STEP  INC ATT SEVERE EQUIL TOTAL  TOTAL      STEP       INC OF       DOF    IF
               DISCON ITERS ITERS  TIME/    TIME/LPF    TIME/LPF    MONITOR RIKS
               ITERS               FREQ
   1     1   1U    0     1     1  0.00       0.00       2.000     
   1     1   2     0     4     4  0.500      0.500      0.5000    
   1     2   1     0     3     3  1.00       1.00       0.5000    
   1     3   1U    0     1     1  1.00       1.00       0.7500    
   1     3   2     0     3     3  1.19       1.19       0.1875    
   1     4   1U    0     1     1  1.19       1.19       0.2812    
   1     4   2     0     3     3  1.26       1.26       0.07031   
   1     5   1U    0     2     2  1.26       1.26       0.1055    
   1     5   2     0     2     2  1.28       1.28       0.02637   
   1     6   1     0     3     3  1.32       1.32       0.03955   
   1     7   1     0     3     3  1.38       1.38       0.05933   
   1     8   1     0     4     4  1.47       1.47       0.08899   
   1     9   1U    0     1     1  1.47       1.47       0.1335    
   1     9   2     0     3     3  1.51       1.51       0.03337   
   1    10   1     0     2     2  1.56       1.56       0.05006   
   1    11   1     0     3     3  1.63       1.63       0.07508   
   1    12   1     0     4     4  1.74       1.74       0.1126    
   1    13   1     0     4     4  1.91       1.91       0.1689    
   1    14   1     0     3     3  2.00       2.00       0.08787   
                          
 THE ANALYSIS HAS COMPLETED SUCCESSFULLY
