 Abaqus/Standard 2022                  DATE 11-Nov-2022 TIME 21:42:38
 SUMMARY OF JOB INFORMATION:
 STEP  INC ATT SEVERE EQUIL TOTAL  TOTAL      STEP       INC OF       DOF    IF
               DISCON ITERS ITERS  TIME/    TIME/LPF    TIME/LPF    MONITOR RIKS
               ITERS               FREQ
   1     1   1U    0     1     1  0.00       0.00       1.000     
   1     1   2     0     4     4  0.250      0.250      0.2500    
   1     2   1     0     3     3  0.500      0.500      0.2500    
   1     3   1U    0     1     1  0.500      0.500      0.3750    
   1     3   2     0     3     3  0.594      0.594      0.09375   
   1     4   1U    0     2     2  0.594      0.594      0.1406    
   1     4   2     0     2     2  0.629      0.629      0.03516   
   1     5   1     0     3     3  0.682      0.682      0.05273   
   1     6   1U    0     1     1  0.682      0.682      0.07910   
   1     6   2     0     3     3  0.701      0.701      0.01978   
   1     7   1     0     3     3  0.731      0.731      0.02966   
   1     8   1     0     4     4  0.776      0.776      0.04449   
   1     9   1U    0     2     2  0.776      0.776      0.06674   
   1     9   2     0     3     3  0.792      0.792      0.01669   
   1    10   1     0     2     2  0.817      0.817      0.02503   
   1    11   1     0     3     3  0.855      0.855      0.03754   
   1    12   1     0     3     3  0.911      0.911      0.05631   
   1    13   1     0     4     4  0.996      0.996      0.08447   
   1    14   1     0     1     1  1.00       1.00       0.004386  
                          
 THE ANALYSIS HAS COMPLETED SUCCESSFULLY
