1

   Abaqus 2022                                  Date 11-Nov-2022   Time 21:42:31
   For use by Supplied by Team-SolidSQUAD under license from Dassault Systemes or its subsidiary.

                                                                                 
                                                                                 
 STEP    1     INCREMENT     1     STEP TIME    0.00    


                        S T E P       1     S T A T I C   A N A L Y S I S


                                                                                          

     AUTOMATIC TIME CONTROL WITH -
          A SUGGESTED INITIAL TIME INCREMENT OF                 1.00    
          AND A TOTAL TIME PERIOD OF                            1.00    
          THE MINIMUM TIME INCREMENT ALLOWED IS                1.000E-08
          THE MAXIMUM TIME INCREMENT ALLOWED IS                 1.00    

     LINEAR EQUATION SOLVER TYPE         DIRECT SPARSE

 CONVERGENCE TOLERANCE PARAMETERS FOR FORCE    
     CRITERION FOR RESIDUAL FORCE     FOR A NONLINEAR PROBLEM          5.000E-03
     CRITERION FOR DISP.    CORRECTION IN A NONLINEAR PROBLEM          1.000E-02
     INITIAL VALUE OF TIME AVERAGE FORCE                               1.000E-02
     AVERAGE FORCE     IS TIME AVERAGE FORCE    
     ALTERNATE CRIT. FOR RESIDUAL FORCE     FOR A NONLINEAR PROBLEM    2.000E-02
     CRITERION FOR ZERO FORCE     RELATIVE TO TIME AVRG. FORCE         1.000E-05
     CRITERION FOR RESIDUAL FORCE     WHEN THERE IS ZERO FLUX          1.000E-05
     CRITERION FOR DISP.    CORRECTION WHEN THERE IS ZERO FLUX         1.000E-03
     CRITERION FOR RESIDUAL FORCE     FOR A LINEAR INCREMENT           1.000E-08
     FIELD CONVERSION RATIO                                             1.00    
     CRITERION FOR ZERO FORCE     REL. TO TIME AVRG. MAX. FORCE        1.000E-05
     CRITERION FOR ZERO DISP.    RELATIVE TO CHARACTERISTIC LENGTH     1.000E-08

     VOLUMETRIC STRAIN COMPATIBILITY TOLERANCE FOR HYBRID SOLIDS       1.000E-05
     AXIAL STRAIN COMPATIBILITY TOLERANCE FOR HYBRID BEAMS             1.000E-05
     TRANS. SHEAR STRAIN COMPATIBILITY TOLERANCE FOR HYBRID BEAMS      1.000E-05
     SOFT CONTACT CONSTRAINT COMPATIBILITY TOLERANCE FOR P>P0          5.000E-03
     SOFT CONTACT CONSTRAINT COMPATIBILITY TOLERANCE FOR P=0.0         0.100    
     CONTACT FORCE ERROR TOLERANCE FOR CONVERT SDI=YES                 1.00    
     DISPLACEMENT COMPATIBILITY TOLERANCE FOR DCOUP ELEMENTS           1.000E-05
     ROTATION COMPATIBILITY TOLERANCE FOR DCOUP ELEMENTS               1.000E-05

 EQUILIBRIUM WILL BE CHECKED FOR SEVERE DISCONTINUITY ITERATIONS

 TIME INCREMENTATION CONTROL PARAMETERS:
     FIRST EQUILIBRIUM ITERATION FOR CONSECUTIVE DIVERGENCE CHECK              4
     EQUILIBRIUM ITERATION AT WHICH LOG. CONVERGENCE RATE CHECK BEGINS         8
     EQUILIBRIUM ITERATION AFTER WHICH ALTERNATE RESIDUAL IS USED              9
     MAXIMUM EQUILIBRIUM ITERATIONS ALLOWED                                   16
     EQUILIBRIUM ITERATION COUNT FOR CUT-BACK IN NEXT INCREMENT               10
     MAXIMUM EQUILIB. ITERS IN TWO INCREMENTS FOR TIME INCREMENT INCREASE      4
     MAXIMUM ITERATIONS FOR SEVERE DISCONTINUITIES                            50
     MAXIMUM ATTEMPTS ALLOWED IN AN INCREMENT                                  5
     MAXIMUM DISCON. ITERS IN TWO INCREMENTS FOR TIME INCREMENT INCREASE      50
     MAXIMUM CONTACT AUGMENTATIONS FOR *SURFACE BEHAVIOR,AUGMENTED LAGRANGE   50
     CUT-BACK FACTOR AFTER DIVERGENCE                                 0.2500    
     CUT-BACK FACTOR FOR TOO SLOW CONVERGENCE                         0.5000    
     CUT-BACK FACTOR AFTER TOO MANY EQUILIBRIUM ITERATIONS            0.7500    
     CUT-BACK FACTOR AFTER TOO MANY SEVERE DISCONTINUITY ITERATIONS   0.2500    
     CUT-BACK FACTOR AFTER PROBLEMS IN ELEMENT ASSEMBLY               0.2500    
     INCREASE FACTOR AFTER TWO INCREMENTS THAT CONVERGE QUICKLY        1.500    
     MAX. TIME INCREMENT INCREASE FACTOR ALLOWED                       1.500    
     MAX. TIME INCREMENT INCREASE FACTOR ALLOWED (DYNAMICS)            1.250    
     MAX. TIME INCREMENT INCREASE FACTOR ALLOWED (DIFFUSION)           2.000    
     MINIMUM TIME INCREMENT RATIO FOR EXTRAPOLATION TO OCCUR          0.1000    
     MAX. RATIO OF TIME INCREMENT TO STABILITY LIMIT                   1.000    
     FRACTION OF STABILITY LIMIT FOR NEW TIME INCREMENT               0.9500    
     TIME INCREMENT INCREASE FACTOR BEFORE A TIME POINT                1.000    
     GLOBAL STABILIZATION CONTROL IS NOT USED

          PRINT OF INCREMENT NUMBER, TIME, ETC., EVERY    1  INCREMENTS

     THE MAXIMUM NUMBER OF INCREMENTS IN THIS STEP IS                 1000000

          LARGE DISPLACEMENT THEORY WILL BE USED

     LINEAR EXTRAPOLATION WILL BE USED

     CHARACTERISTIC ELEMENT LENGTH      184.    

     DETAILS REGARDING ACTUAL SOLUTION WAVEFRONT REQUESTED

     DETAILED OUTPUT OF DIAGNOSTICS TO DATABASE REQUESTED

     PRINT OF INCREMENT NUMBER, TIME, ETC., TO THE MESSAGE FILE EVERY     1  INCREMENTS

     ELEMENT OPERATIONS WILL BE CARRIED OUT IN PARALLEL USING   8 THREADS ON 1 DOMAIN

     PARALLEL CONTACT TRACKING ENABLED


     COLLECTING MODEL CONSTRAINT INFORMATION FOR OVERCONSTRAINT CHECKS

     COLLECTING STEP CONSTRAINT INFORMATION FOR OVERCONSTRAINT CHECKS


  INCREMENT     1 STARTS. ATTEMPT NUMBER  1, TIME INCREMENT   1.00    
 
     INITIAL ELEMENT LOAD BALANCE
            DOMAIN    1     THREAD    NUMBER OF ELEMENTS
                              1            3860
                              2            4032
                              3            3872
                              4            4008
                              5            3744
                              6            3464
                              7            3744
                              8            3928
 
	SYMMETRIC DIRECT SPARSE SOLVER RUNNING ON
 	1 HOST:        1 MPI RANK  x 8 THREADS
 	NUMBER OF EQUATIONS:     182689
 	NUMBER OF RHS:           1
 	NUMBER OF FLOPS:         1.064e+11

     CHECK POINT   START OF SOLVER    

     CHECK POINT  END OF SOLVER       

       ELAPSED USER TIME (SEC)      =   7.5000    
       ELAPSED SYSTEM TIME (SEC)    =  0.20000    
       ELAPSED TOTAL CPU TIME (SEC) =   7.7000    
       ELAPSED WALLCLOCK TIME (SEC) =          2
 

 ***WARNING: THE SYSTEM MATRIX HAS 6 NEGATIVE EIGENVALUES.

     NEGATIVE EIGENVALUES MEAN THAT THE SYSTEM MATRIX IS NOT 
     POSITIVE DEFINITE:
     FOR EXAMPLE, A BIFURCATION (BUCKLING) LOAD MAY HAVE BEEN EXCEEDED.
   ELEMENT D15W6-1.2322 IS DISTORTING EXCESSIVELY.
   ELEMENT D15W6-1.11164 IS DISTORTING EXCESSIVELY.
   ELEMENT D15W6-1.13268 IS DISTORTING EXCESSIVELY.
   ELEMENT D15W6-1.15076 IS DISTORTING EXCESSIVELY.
   ELEMENT D15W6-1.15078 IS DISTORTING EXCESSIVELY.
   ELEMENT D15W6-1.22388 IS DISTORTING EXCESSIVELY.
   ELEMENT D15W6-1.22758 IS DISTORTING EXCESSIVELY.
   ELEMENT D15W6-1.7618 IS DISTORTING EXCESSIVELY.
   ELEMENT D15W6-1.11294 IS DISTORTING EXCESSIVELY.
   ELEMENT D15W6-1.13348 IS DISTORTING EXCESSIVELY.
   ELEMENT D15W6-1.16951 IS DISTORTING EXCESSIVELY.
   ELEMENT D15W6-1.16951 IS DISTORTING EXCESSIVELY.
   ELEMENT D15W6-1.17206 IS DISTORTING EXCESSIVELY.
   ELEMENT D15W6-1.17772 IS DISTORTING EXCESSIVELY.
   ELEMENT D15W6-1.28538 IS DISTORTING EXCESSIVELY.
   ELEMENT D15W6-1.28538 IS DISTORTING EXCESSIVELY.
   ELEMENT D15W6-1.7195 IS DISTORTING EXCESSIVELY.
   ELEMENT D15W6-1.7701 IS DISTORTING EXCESSIVELY.
   ELEMENT D15W6-1.11227 IS DISTORTING EXCESSIVELY.
   ELEMENT D15W6-1.11309 IS DISTORTING EXCESSIVELY.
   ELEMENT D15W6-1.11309 IS DISTORTING EXCESSIVELY.
   ELEMENT D15W6-1.12643 IS DISTORTING EXCESSIVELY.
   ELEMENT D15W6-1.12729 IS DISTORTING EXCESSIVELY.
   ELEMENT D15W6-1.22648 IS DISTORTING EXCESSIVELY.
   ELEMENT D15W6-1.22782 IS DISTORTING EXCESSIVELY.
   ELEMENT D15W6-1.27982 IS DISTORTING EXCESSIVELY.
   ELEMENT D15W6-1.873 IS DISTORTING EXCESSIVELY.
   ELEMENT D15W6-1.11115 IS DISTORTING EXCESSIVELY.
   ELEMENT D15W6-1.12431 IS DISTORTING EXCESSIVELY.
   ELEMENT D15W6-1.13306 IS DISTORTING EXCESSIVELY.
   ELEMENT D15W6-1.16830 IS DISTORTING EXCESSIVELY.
   ELEMENT D15W6-1.30461 IS DISTORTING EXCESSIVELY.
   ELEMENT D15W6-1.11254 IS DISTORTING EXCESSIVELY.
   ELEMENT D15W6-1.12639 IS DISTORTING EXCESSIVELY.
   ELEMENT D15W6-1.12703 IS DISTORTING EXCESSIVELY.
   ELEMENT D15W6-1.12790 IS DISTORTING EXCESSIVELY.
   ELEMENT D15W6-1.21945 IS DISTORTING EXCESSIVELY.
   ELEMENT D15W6-1.9043 IS DISTORTING EXCESSIVELY.
   ELEMENT D15W6-1.10267 IS DISTORTING EXCESSIVELY.
   ELEMENT D15W6-1.10659 IS DISTORTING EXCESSIVELY.
   ELEMENT D15W6-1.10659 IS DISTORTING EXCESSIVELY.
   ELEMENT D15W6-1.10659 IS DISTORTING EXCESSIVELY.
   ELEMENT D15W6-1.10660 IS DISTORTING EXCESSIVELY.
   ELEMENT D15W6-1.10660 IS DISTORTING EXCESSIVELY.
   ELEMENT D15W6-1.11042 IS DISTORTING EXCESSIVELY.
   ELEMENT D15W6-1.11303 IS DISTORTING EXCESSIVELY.
   ELEMENT D15W6-1.12474 IS DISTORTING EXCESSIVELY.
   ELEMENT D15W6-1.13280 IS DISTORTING EXCESSIVELY.
   ELEMENT D15W6-1.20172 IS DISTORTING EXCESSIVELY.
   ELEMENT D15W6-1.28395 IS DISTORTING EXCESSIVELY.
   ELEMENT D15W6-1.29976 IS DISTORTING EXCESSIVELY.
   ELEMENT D15W6-1.10655 IS DISTORTING EXCESSIVELY.
   ELEMENT D15W6-1.12559 IS DISTORTING EXCESSIVELY.
   ELEMENT D15W6-1.12715 IS DISTORTING EXCESSIVELY.
   ELEMENT D15W6-1.13163 IS DISTORTING EXCESSIVELY.
   ELEMENT D15W6-1.13295 IS DISTORTING EXCESSIVELY.
   ELEMENT D15W6-1.22534 IS DISTORTING EXCESSIVELY.
   ELEMENT D15W6-1.30272 IS DISTORTING EXCESSIVELY.

 ***WARNING: EXCESSIVE DISTORTION AT A TOTAL OF 58 INTEGRATION POINTS IN SOLID 
             (CONTINUUM) ELEMENTS
 

 ***NOTE: ELEMENTS ARE DISTORTING EXCESSIVELY. CONVERGENCE IS JUDGED UNLIKELY.


  INCREMENT     1 STARTS. ATTEMPT NUMBER  2, TIME INCREMENT  0.250    
 
	SYMMETRIC DIRECT SPARSE SOLVER RUNNING ON
 	1 HOST:        1 MPI RANK  x 8 THREADS
 	NUMBER OF EQUATIONS:     182689
 	NUMBER OF RHS:           1
 	NUMBER OF FLOPS:         1.064e+11

     CHECK POINT   START OF SOLVER    

     CHECK POINT  END OF SOLVER       

       ELAPSED USER TIME (SEC)      =   5.5000    
       ELAPSED SYSTEM TIME (SEC)    =   0.0000    
       ELAPSED TOTAL CPU TIME (SEC) =   5.5000    
       ELAPSED WALLCLOCK TIME (SEC) =          2
 

 ***WARNING: THE SYSTEM MATRIX HAS 2 NEGATIVE EIGENVALUES.
             EXPLANATIONS ARE SUGGESTED AFTER THE FIRST OCCURRENCE OF THIS MESSAGE.

               CONVERGENCE CHECKS FOR EQUILIBRIUM ITERATION     1


 AVERAGE FORCE                       25.9       TIME AVG. FORCE        25.9    
 LARGEST RESIDUAL FORCE             -145.       AT NODE       9231   DOF  1
   INSTANCE: D15W6-1                                                                         
 LARGEST INCREMENT OF DISP.         -122.       AT NODE      32297   DOF  3
   INSTANCE: D15W6-1                                                                         
 LARGEST CORRECTION TO DISP.        -122.       AT NODE      32297   DOF  3
   INSTANCE: D15W6-1                                                                         
          FORCE     EQUILIBRIUM NOT ACHIEVED WITHIN TOLERANCE.

 COMPATIBILITY ERRORS:
    TYPE                NUMBER EXCEEDING TOLERANCE  MAXIMUM ERROR        IN ELEMENT
 VOLUMETRIC                      28678               -1.175E-01              17551
   INSTANCE: D15W6-1                                                                         
 
	SYMMETRIC DIRECT SPARSE SOLVER RUNNING ON
 	1 HOST:        1 MPI RANK  x 8 THREADS
 	NUMBER OF EQUATIONS:     182689
 	NUMBER OF RHS:           1
 	NUMBER OF FLOPS:         1.064e+11

     CHECK POINT   START OF SOLVER    

     CHECK POINT  END OF SOLVER       

       ELAPSED USER TIME (SEC)      =   7.1000    
       ELAPSED SYSTEM TIME (SEC)    =   0.0000    
       ELAPSED TOTAL CPU TIME (SEC) =   7.1000    
       ELAPSED WALLCLOCK TIME (SEC) =          2

               CONVERGENCE CHECKS FOR EQUILIBRIUM ITERATION     2


 AVERAGE FORCE                       15.9       TIME AVG. FORCE        15.9    
 LARGEST RESIDUAL FORCE             -11.6       AT NODE      29560   DOF  1
   INSTANCE: D15W6-1                                                                         
 LARGEST INCREMENT OF DISP.         -107.       AT NODE      32297   DOF  3
   INSTANCE: D15W6-1                                                                         
 LARGEST CORRECTION TO DISP.        -78.1       AT NODE        817   DOF  2
   INSTANCE: D15W6-1                                                                         
          FORCE     EQUILIBRIUM NOT ACHIEVED WITHIN TOLERANCE.

 COMPATIBILITY ERRORS:
    TYPE                NUMBER EXCEEDING TOLERANCE  MAXIMUM ERROR        IN ELEMENT
 VOLUMETRIC                      19583               -1.306E-02              17490
   INSTANCE: D15W6-1                                                                         
 
	SYMMETRIC DIRECT SPARSE SOLVER RUNNING ON
 	1 HOST:        1 MPI RANK  x 8 THREADS
 	NUMBER OF EQUATIONS:     182689
 	NUMBER OF RHS:           1
 	NUMBER OF FLOPS:         1.064e+11

     CHECK POINT   START OF SOLVER    

     CHECK POINT  END OF SOLVER       

       ELAPSED USER TIME (SEC)      =   4.6000    
       ELAPSED SYSTEM TIME (SEC)    =   0.0000    
       ELAPSED TOTAL CPU TIME (SEC) =   4.6000    
       ELAPSED WALLCLOCK TIME (SEC) =          2

               CONVERGENCE CHECKS FOR EQUILIBRIUM ITERATION     3


 AVERAGE FORCE                       9.10       TIME AVG. FORCE        9.10    
 LARGEST RESIDUAL FORCE            -0.143       AT NODE      29562   DOF  3
   INSTANCE: D15W6-1                                                                         
 LARGEST INCREMENT OF DISP.         -106.       AT NODE      32297   DOF  3
   INSTANCE: D15W6-1                                                                         
 LARGEST CORRECTION TO DISP.         7.72       AT NODE      45852   DOF  2
   INSTANCE: D15W6-1                                                                         
          FORCE     EQUILIBRIUM NOT ACHIEVED WITHIN TOLERANCE.

 COMPATIBILITY ERRORS:
    TYPE                NUMBER EXCEEDING TOLERANCE  MAXIMUM ERROR        IN ELEMENT
 VOLUMETRIC                      10385               -1.360E-04              17575
   INSTANCE: D15W6-1                                                                         
 
	SYMMETRIC DIRECT SPARSE SOLVER RUNNING ON
 	1 HOST:        1 MPI RANK  x 8 THREADS
 	NUMBER OF EQUATIONS:     182689
 	NUMBER OF RHS:           1
 	NUMBER OF FLOPS:         1.064e+11

     CHECK POINT   START OF SOLVER    

     CHECK POINT  END OF SOLVER       

       ELAPSED USER TIME (SEC)      =   5.5000    
       ELAPSED SYSTEM TIME (SEC)    =   0.0000    
       ELAPSED TOTAL CPU TIME (SEC) =   5.5000    
       ELAPSED WALLCLOCK TIME (SEC) =          2

               CONVERGENCE CHECKS FOR EQUILIBRIUM ITERATION     4


 AVERAGE FORCE                       9.01       TIME AVG. FORCE        9.01    
 LARGEST RESIDUAL FORCE            -3.681E-05   AT NODE      31135   DOF  2
   INSTANCE: D15W6-1                                                                         
 LARGEST INCREMENT OF DISP.         -106.       AT NODE      32297   DOF  3
   INSTANCE: D15W6-1                                                                         
 LARGEST CORRECTION TO DISP.        0.112       AT NODE      50019   DOF  2
   INSTANCE: D15W6-1                                                                         
          THE FORCE     EQUILIBRIUM EQUATIONS HAVE CONVERGED

 COMPATIBILITY ERRORS:
    TYPE                NUMBER EXCEEDING TOLERANCE  MAXIMUM ERROR        IN ELEMENT
 VOLUMETRIC                          0               -2.081E-08              23533
   INSTANCE: D15W6-1                                                                         

 ITERATION SUMMARY FOR THE INCREMENT:   4 TOTAL ITERATIONS, OF WHICH
   0 ARE SEVERE DISCONTINUITY ITERATIONS AND  4 ARE EQUILIBRIUM ITERATIONS.

 TIME INCREMENT COMPLETED  0.250    ,  FRACTION OF STEP COMPLETED  0.250    
 STEP TIME COMPLETED       0.250    ,  TOTAL TIME COMPLETED        0.250    


  INCREMENT     2 STARTS. ATTEMPT NUMBER  1, TIME INCREMENT  0.250    
 
	SYMMETRIC DIRECT SPARSE SOLVER RUNNING ON
 	1 HOST:        1 MPI RANK  x 8 THREADS
 	NUMBER OF EQUATIONS:     182689
 	NUMBER OF RHS:           1
 	NUMBER OF FLOPS:         1.064e+11

     CHECK POINT   START OF SOLVER    

     CHECK POINT  END OF SOLVER       

       ELAPSED USER TIME (SEC)      =   7.7000    
       ELAPSED SYSTEM TIME (SEC)    =   0.0000    
       ELAPSED TOTAL CPU TIME (SEC) =   7.7000    
       ELAPSED WALLCLOCK TIME (SEC) =          2

               CONVERGENCE CHECKS FOR EQUILIBRIUM ITERATION     1


 AVERAGE FORCE                       31.3       TIME AVG. FORCE        20.1    
 LARGEST RESIDUAL FORCE              81.5       AT NODE      32387   DOF  3
   INSTANCE: D15W6-1                                                                         
 LARGEST INCREMENT OF DISP.         -134.       AT NODE        848   DOF  3
   INSTANCE: D15W6-1                                                                         
 LARGEST CORRECTION TO DISP.         79.2       AT NODE      12531   DOF  2
   INSTANCE: D15W6-1                                                                         
          FORCE     EQUILIBRIUM NOT ACHIEVED WITHIN TOLERANCE.

 COMPATIBILITY ERRORS:
    TYPE                NUMBER EXCEEDING TOLERANCE  MAXIMUM ERROR        IN ELEMENT
 VOLUMETRIC                      28395               -2.514E-02              11247
   INSTANCE: D15W6-1                                                                         
 
	SYMMETRIC DIRECT SPARSE SOLVER RUNNING ON
 	1 HOST:        1 MPI RANK  x 8 THREADS
 	NUMBER OF EQUATIONS:     182689
 	NUMBER OF RHS:           1
 	NUMBER OF FLOPS:         1.064e+11

     CHECK POINT   START OF SOLVER    

     CHECK POINT  END OF SOLVER       

       ELAPSED USER TIME (SEC)      =   12.100    
       ELAPSED SYSTEM TIME (SEC)    =  0.10000    
       ELAPSED TOTAL CPU TIME (SEC) =   12.200    
       ELAPSED WALLCLOCK TIME (SEC) =          2

               CONVERGENCE CHECKS FOR EQUILIBRIUM ITERATION     2


 AVERAGE FORCE                       25.5       TIME AVG. FORCE        17.2    
 LARGEST RESIDUAL FORCE             -4.37       AT NODE      15279   DOF  3
   INSTANCE: D15W6-1                                                                         
 LARGEST INCREMENT OF DISP.         -138.       AT NODE      16577   DOF  3
   INSTANCE: D15W6-1                                                                         
 LARGEST CORRECTION TO DISP.        -16.8       AT NODE       2167   DOF  2
   INSTANCE: D15W6-1                                                                         
          FORCE     EQUILIBRIUM NOT ACHIEVED WITHIN TOLERANCE.

 COMPATIBILITY ERRORS:
    TYPE                NUMBER EXCEEDING TOLERANCE  MAXIMUM ERROR        IN ELEMENT
 VOLUMETRIC                       9544               -8.660E-04              11247
   INSTANCE: D15W6-1                                                                         
 
	SYMMETRIC DIRECT SPARSE SOLVER RUNNING ON
 	1 HOST:        1 MPI RANK  x 8 THREADS
 	NUMBER OF EQUATIONS:     182689
 	NUMBER OF RHS:           1
 	NUMBER OF FLOPS:         1.064e+11

     CHECK POINT   START OF SOLVER    

     CHECK POINT  END OF SOLVER       

       ELAPSED USER TIME (SEC)      =   6.5000    
       ELAPSED SYSTEM TIME (SEC)    =   0.0000    
       ELAPSED TOTAL CPU TIME (SEC) =   6.5000    
       ELAPSED WALLCLOCK TIME (SEC) =          2

               CONVERGENCE CHECKS FOR EQUILIBRIUM ITERATION     3


 AVERAGE FORCE                       25.9       TIME AVG. FORCE        17.5    
 LARGEST RESIDUAL FORCE            -1.769E-03   AT NODE       9581   DOF  3
   INSTANCE: D15W6-1                                                                         
 LARGEST INCREMENT OF DISP.         -137.       AT NODE      16577   DOF  3
   INSTANCE: D15W6-1                                                                         
 LARGEST CORRECTION TO DISP.        0.374       AT NODE      45579   DOF  2
   INSTANCE: D15W6-1                                                                         
          THE FORCE     EQUILIBRIUM EQUATIONS HAVE CONVERGED

 COMPATIBILITY ERRORS:
    TYPE                NUMBER EXCEEDING TOLERANCE  MAXIMUM ERROR        IN ELEMENT
 VOLUMETRIC                          0               -6.599E-07              11225
   INSTANCE: D15W6-1                                                                         
          TIME INCREMENT MAY NOW INCREASE TO    0.375    

 ITERATION SUMMARY FOR THE INCREMENT:   3 TOTAL ITERATIONS, OF WHICH
   0 ARE SEVERE DISCONTINUITY ITERATIONS AND  3 ARE EQUILIBRIUM ITERATIONS.

 TIME INCREMENT COMPLETED  0.250    ,  FRACTION OF STEP COMPLETED  0.500    
 STEP TIME COMPLETED       0.500    ,  TOTAL TIME COMPLETED        0.500    


  INCREMENT     3 STARTS. ATTEMPT NUMBER  1, TIME INCREMENT  0.375    
 
	SYMMETRIC DIRECT SPARSE SOLVER RUNNING ON
 	1 HOST:        1 MPI RANK  x 8 THREADS
 	NUMBER OF EQUATIONS:     182689
 	NUMBER OF RHS:           1
 	NUMBER OF FLOPS:         1.064e+11

     CHECK POINT   START OF SOLVER    

     CHECK POINT  END OF SOLVER       

       ELAPSED USER TIME (SEC)      =   6.4000    
       ELAPSED SYSTEM TIME (SEC)    =  0.10000    
       ELAPSED TOTAL CPU TIME (SEC) =   6.5000    
       ELAPSED WALLCLOCK TIME (SEC) =          2
 

 ***WARNING: THE SYSTEM MATRIX HAS 4 NEGATIVE EIGENVALUES.
             EXPLANATIONS ARE SUGGESTED AFTER THE FIRST OCCURRENCE OF THIS MESSAGE.
   ELEMENT D15W6-1.148 IS DISTORTING EXCESSIVELY.
   ELEMENT D15W6-1.148 IS DISTORTING EXCESSIVELY.
   ELEMENT D15W6-1.148 IS DISTORTING EXCESSIVELY.
   ELEMENT D15W6-1.148 IS DISTORTING EXCESSIVELY.
   ELEMENT D15W6-1.149 IS DISTORTING EXCESSIVELY.
   ELEMENT D15W6-1.149 IS DISTORTING EXCESSIVELY.
   ELEMENT D15W6-1.149 IS DISTORTING EXCESSIVELY.
   ELEMENT D15W6-1.149 IS DISTORTING EXCESSIVELY.
   ELEMENT D15W6-1.329 IS DISTORTING EXCESSIVELY.
   ELEMENT D15W6-1.329 IS DISTORTING EXCESSIVELY.
   ELEMENT D15W6-1.329 IS DISTORTING EXCESSIVELY.
   ELEMENT D15W6-1.329 IS DISTORTING EXCESSIVELY.
   ELEMENT D15W6-1.331 IS DISTORTING EXCESSIVELY.
   ELEMENT D15W6-1.331 IS DISTORTING EXCESSIVELY.
   ELEMENT D15W6-1.331 IS DISTORTING EXCESSIVELY.
   ELEMENT D15W6-1.332 IS DISTORTING EXCESSIVELY.
   ELEMENT D15W6-1.332 IS DISTORTING EXCESSIVELY.
   ELEMENT D15W6-1.333 IS DISTORTING EXCESSIVELY.
   ELEMENT D15W6-1.333 IS DISTORTING EXCESSIVELY.
   ELEMENT D15W6-1.333 IS DISTORTING EXCESSIVELY.
   ELEMENT D15W6-1.336 IS DISTORTING EXCESSIVELY.
   ELEMENT D15W6-1.2294 IS DISTORTING EXCESSIVELY.
   ELEMENT D15W6-1.2294 IS DISTORTING EXCESSIVELY.
   ELEMENT D15W6-1.2294 IS DISTORTING EXCESSIVELY.
   ELEMENT D15W6-1.2294 IS DISTORTING EXCESSIVELY.
   ELEMENT D15W6-1.2295 IS DISTORTING EXCESSIVELY.
   ELEMENT D15W6-1.2295 IS DISTORTING EXCESSIVELY.
   ELEMENT D15W6-1.2295 IS DISTORTING EXCESSIVELY.
   ELEMENT D15W6-1.2295 IS DISTORTING EXCESSIVELY.
   ELEMENT D15W6-1.2296 IS DISTORTING EXCESSIVELY.
   ELEMENT D15W6-1.2296 IS DISTORTING EXCESSIVELY.
   ELEMENT D15W6-1.2296 IS DISTORTING EXCESSIVELY.
   ELEMENT D15W6-1.2296 IS DISTORTING EXCESSIVELY.
   ELEMENT D15W6-1.3254 IS DISTORTING EXCESSIVELY.
   ELEMENT D15W6-1.3254 IS DISTORTING EXCESSIVELY.
   ELEMENT D15W6-1.3254 IS DISTORTING EXCESSIVELY.
   ELEMENT D15W6-1.3255 IS DISTORTING EXCESSIVELY.
   ELEMENT D15W6-1.3255 IS DISTORTING EXCESSIVELY.
   ELEMENT D15W6-1.3255 IS DISTORTING EXCESSIVELY.
   ELEMENT D15W6-1.3722 IS DISTORTING EXCESSIVELY.
   ELEMENT D15W6-1.3722 IS DISTORTING EXCESSIVELY.
   ELEMENT D15W6-1.3722 IS DISTORTING EXCESSIVELY.
   ELEMENT D15W6-1.3722 IS DISTORTING EXCESSIVELY.
   ELEMENT D15W6-1.3723 IS DISTORTING EXCESSIVELY.
   ELEMENT D15W6-1.3723 IS DISTORTING EXCESSIVELY.
   ELEMENT D15W6-1.3723 IS DISTORTING EXCESSIVELY.
   ELEMENT D15W6-1.3723 IS DISTORTING EXCESSIVELY.
   ELEMENT D15W6-1.4112 IS DISTORTING EXCESSIVELY.
   ELEMENT D15W6-1.4112 IS DISTORTING EXCESSIVELY.
   ELEMENT D15W6-1.4112 IS DISTORTING EXCESSIVELY.
   ELEMENT D15W6-1.4308 IS DISTORTING EXCESSIVELY.
   ELEMENT D15W6-1.4308 IS DISTORTING EXCESSIVELY.
   ELEMENT D15W6-1.4308 IS DISTORTING EXCESSIVELY.
   ELEMENT D15W6-1.4452 IS DISTORTING EXCESSIVELY.
   ELEMENT D15W6-1.4452 IS DISTORTING EXCESSIVELY.
   ELEMENT D15W6-1.4452 IS DISTORTING EXCESSIVELY.
   ELEMENT D15W6-1.4452 IS DISTORTING EXCESSIVELY.
   ELEMENT D15W6-1.4453 IS DISTORTING EXCESSIVELY.
   ELEMENT D15W6-1.4453 IS DISTORTING EXCESSIVELY.
   ELEMENT D15W6-1.4453 IS DISTORTING EXCESSIVELY.
   ELEMENT D15W6-1.4453 IS DISTORTING EXCESSIVELY.
   ELEMENT D15W6-1.4454 IS DISTORTING EXCESSIVELY.
   ELEMENT D15W6-1.4454 IS DISTORTING EXCESSIVELY.
   ELEMENT D15W6-1.4454 IS DISTORTING EXCESSIVELY.
   ELEMENT D15W6-1.4455 IS DISTORTING EXCESSIVELY.
   ELEMENT D15W6-1.4455 IS DISTORTING EXCESSIVELY.
   ELEMENT D15W6-1.4455 IS DISTORTING EXCESSIVELY.
   ELEMENT D15W6-1.4455 IS DISTORTING EXCESSIVELY.
   ELEMENT D15W6-1.4456 IS DISTORTING EXCESSIVELY.
   ELEMENT D15W6-1.4456 IS DISTORTING EXCESSIVELY.
   ELEMENT D15W6-1.4456 IS DISTORTING EXCESSIVELY.
   ELEMENT D15W6-1.4456 IS DISTORTING EXCESSIVELY.
   ELEMENT D15W6-1.6334 IS DISTORTING EXCESSIVELY.
   ELEMENT D15W6-1.6335 IS DISTORTING EXCESSIVELY.
   ELEMENT D15W6-1.6335 IS DISTORTING EXCESSIVELY.
   ELEMENT D15W6-1.6335 IS DISTORTING EXCESSIVELY.
   ELEMENT D15W6-1.6335 IS DISTORTING EXCESSIVELY.
   ELEMENT D15W6-1.6336 IS DISTORTING EXCESSIVELY.
   ELEMENT D15W6-1.6336 IS DISTORTING EXCESSIVELY.
   ELEMENT D15W6-1.6336 IS DISTORTING EXCESSIVELY.
   ELEMENT D15W6-1.6336 IS DISTORTING EXCESSIVELY.
   ELEMENT D15W6-1.6784 IS DISTORTING EXCESSIVELY.
   ELEMENT D15W6-1.6784 IS DISTORTING EXCESSIVELY.
   ELEMENT D15W6-1.6784 IS DISTORTING EXCESSIVELY.
   ELEMENT D15W6-1.6784 IS DISTORTING EXCESSIVELY.
   ELEMENT D15W6-1.7195 IS DISTORTING EXCESSIVELY.
   ELEMENT D15W6-1.7372 IS DISTORTING EXCESSIVELY.
   ELEMENT D15W6-1.7372 IS DISTORTING EXCESSIVELY.
   ELEMENT D15W6-1.7372 IS DISTORTING EXCESSIVELY.
   ELEMENT D15W6-1.7372 IS DISTORTING EXCESSIVELY.
   ELEMENT D15W6-1.7376 IS DISTORTING EXCESSIVELY.
   ELEMENT D15W6-1.7376 IS DISTORTING EXCESSIVELY.
   ELEMENT D15W6-1.7376 IS DISTORTING EXCESSIVELY.
   ELEMENT D15W6-1.7376 IS DISTORTING EXCESSIVELY.
   ELEMENT D15W6-1.8431 IS DISTORTING EXCESSIVELY.
   ELEMENT D15W6-1.8431 IS DISTORTING EXCESSIVELY.
   ELEMENT D15W6-1.8567 IS DISTORTING EXCESSIVELY.
   ELEMENT D15W6-1.8672 IS DISTORTING EXCESSIVELY.
   ELEMENT D15W6-1.8672 IS DISTORTING EXCESSIVELY.
   ELEMENT D15W6-1.8932 IS DISTORTING EXCESSIVELY.
   ELEMENT D15W6-1.9028 IS DISTORTING EXCESSIVELY.
   ELEMENT D15W6-1.9028 IS DISTORTING EXCESSIVELY.
   ELEMENT D15W6-1.9029 IS DISTORTING EXCESSIVELY.
   ELEMENT D15W6-1.9029 IS DISTORTING EXCESSIVELY.
   ELEMENT D15W6-1.9029 IS DISTORTING EXCESSIVELY.
   ELEMENT D15W6-1.9029 IS DISTORTING EXCESSIVELY.
   ELEMENT D15W6-1.9031 IS DISTORTING EXCESSIVELY.
   ELEMENT D15W6-1.9031 IS DISTORTING EXCESSIVELY.
   ELEMENT D15W6-1.9031 IS DISTORTING EXCESSIVELY.
   ELEMENT D15W6-1.9031 IS DISTORTING EXCESSIVELY.
   ELEMENT D15W6-1.9706 IS DISTORTING EXCESSIVELY.
   ELEMENT D15W6-1.9706 IS DISTORTING EXCESSIVELY.
   ELEMENT D15W6-1.9706 IS DISTORTING EXCESSIVELY.
   ELEMENT D15W6-1.9706 IS DISTORTING EXCESSIVELY.
   ELEMENT D15W6-1.9708 IS DISTORTING EXCESSIVELY.
   ELEMENT D15W6-1.9708 IS DISTORTING EXCESSIVELY.
   ELEMENT D15W6-1.9708 IS DISTORTING EXCESSIVELY.
   ELEMENT D15W6-1.9708 IS DISTORTING EXCESSIVELY.
   ELEMENT D15W6-1.9709 IS DISTORTING EXCESSIVELY.
   ELEMENT D15W6-1.9709 IS DISTORTING EXCESSIVELY.
   ELEMENT D15W6-1.9709 IS DISTORTING EXCESSIVELY.
   ELEMENT D15W6-1.9709 IS DISTORTING EXCESSIVELY.
   ELEMENT D15W6-1.9712 IS DISTORTING EXCESSIVELY.
   ELEMENT D15W6-1.9712 IS DISTORTING EXCESSIVELY.
   ELEMENT D15W6-1.9712 IS DISTORTING EXCESSIVELY.
   ELEMENT D15W6-1.9712 IS DISTORTING EXCESSIVELY.
   ELEMENT D15W6-1.10556 IS DISTORTING EXCESSIVELY.
   ELEMENT D15W6-1.10556 IS DISTORTING EXCESSIVELY.
   ELEMENT D15W6-1.10556 IS DISTORTING EXCESSIVELY.
   ELEMENT D15W6-1.10559 IS DISTORTING EXCESSIVELY.
   ELEMENT D15W6-1.10559 IS DISTORTING EXCESSIVELY.
   ELEMENT D15W6-1.10559 IS DISTORTING EXCESSIVELY.
   ELEMENT D15W6-1.10713 IS DISTORTING EXCESSIVELY.
   ELEMENT D15W6-1.10715 IS DISTORTING EXCESSIVELY.
   ELEMENT D15W6-1.10715 IS DISTORTING EXCESSIVELY.
   ELEMENT D15W6-1.10716 IS DISTORTING EXCESSIVELY.
   ELEMENT D15W6-1.10717 IS DISTORTING EXCESSIVELY.
   ELEMENT D15W6-1.11217 IS DISTORTING EXCESSIVELY.
   ELEMENT D15W6-1.11217 IS DISTORTING EXCESSIVELY.
   ELEMENT D15W6-1.11309 IS DISTORTING EXCESSIVELY.
   ELEMENT D15W6-1.11433 IS DISTORTING EXCESSIVELY.
   ELEMENT D15W6-1.11433 IS DISTORTING EXCESSIVELY.
   ELEMENT D15W6-1.11433 IS DISTORTING EXCESSIVELY.
   ELEMENT D15W6-1.11433 IS DISTORTING EXCESSIVELY.
   ELEMENT D15W6-1.11434 IS DISTORTING EXCESSIVELY.
   ELEMENT D15W6-1.11434 IS DISTORTING EXCESSIVELY.
   ELEMENT D15W6-1.11434 IS DISTORTING EXCESSIVELY.
   ELEMENT D15W6-1.11434 IS DISTORTING EXCESSIVELY.
   ELEMENT D15W6-1.12228 IS DISTORTING EXCESSIVELY.
   ELEMENT D15W6-1.12228 IS DISTORTING EXCESSIVELY.
   ELEMENT D15W6-1.12228 IS DISTORTING EXCESSIVELY.
   ELEMENT D15W6-1.12229 IS DISTORTING EXCESSIVELY.
   ELEMENT D15W6-1.12385 IS DISTORTING EXCESSIVELY.
   ELEMENT D15W6-1.12385 IS DISTORTING EXCESSIVELY.
   ELEMENT D15W6-1.12385 IS DISTORTING EXCESSIVELY.
   ELEMENT D15W6-1.12385 IS DISTORTING EXCESSIVELY.
   ELEMENT D15W6-1.12386 IS DISTORTING EXCESSIVELY.
   ELEMENT D15W6-1.12386 IS DISTORTING EXCESSIVELY.
   ELEMENT D15W6-1.12386 IS DISTORTING EXCESSIVELY.
   ELEMENT D15W6-1.12386 IS DISTORTING EXCESSIVELY.
   ELEMENT D15W6-1.12387 IS DISTORTING EXCESSIVELY.
   ELEMENT D15W6-1.12387 IS DISTORTING EXCESSIVELY.
   ELEMENT D15W6-1.12387 IS DISTORTING EXCESSIVELY.
   ELEMENT D15W6-1.12387 IS DISTORTING EXCESSIVELY.
   ELEMENT D15W6-1.12388 IS DISTORTING EXCESSIVELY.
   ELEMENT D15W6-1.12389 IS DISTORTING EXCESSIVELY.
   ELEMENT D15W6-1.12389 IS DISTORTING EXCESSIVELY.
   ELEMENT D15W6-1.12389 IS DISTORTING EXCESSIVELY.
   ELEMENT D15W6-1.12389 IS DISTORTING EXCESSIVELY.
   ELEMENT D15W6-1.12390 IS DISTORTING EXCESSIVELY.
   ELEMENT D15W6-1.12390 IS DISTORTING EXCESSIVELY.
   ELEMENT D15W6-1.12390 IS DISTORTING EXCESSIVELY.
   ELEMENT D15W6-1.12390 IS DISTORTING EXCESSIVELY.
   ELEMENT D15W6-1.12953 IS DISTORTING EXCESSIVELY.
   ELEMENT D15W6-1.12953 IS DISTORTING EXCESSIVELY.
   ELEMENT D15W6-1.12953 IS DISTORTING EXCESSIVELY.
   ELEMENT D15W6-1.12955 IS DISTORTING EXCESSIVELY.
   ELEMENT D15W6-1.12955 IS DISTORTING EXCESSIVELY.
   ELEMENT D15W6-1.12955 IS DISTORTING EXCESSIVELY.
   ELEMENT D15W6-1.12959 IS DISTORTING EXCESSIVELY.
   ELEMENT D15W6-1.12959 IS DISTORTING EXCESSIVELY.
   ELEMENT D15W6-1.12959 IS DISTORTING EXCESSIVELY.
   ELEMENT D15W6-1.12959 IS DISTORTING EXCESSIVELY.
   ELEMENT D15W6-1.13929 IS DISTORTING EXCESSIVELY.
   ELEMENT D15W6-1.13929 IS DISTORTING EXCESSIVELY.
   ELEMENT D15W6-1.13929 IS DISTORTING EXCESSIVELY.
   ELEMENT D15W6-1.13929 IS DISTORTING EXCESSIVELY.
   ELEMENT D15W6-1.13931 IS DISTORTING EXCESSIVELY.
   ELEMENT D15W6-1.13931 IS DISTORTING EXCESSIVELY.
   ELEMENT D15W6-1.13931 IS DISTORTING EXCESSIVELY.
   ELEMENT D15W6-1.13931 IS DISTORTING EXCESSIVELY.
   ELEMENT D15W6-1.15104 IS DISTORTING EXCESSIVELY.
   ELEMENT D15W6-1.15104 IS DISTORTING EXCESSIVELY.
   ELEMENT D15W6-1.15104 IS DISTORTING EXCESSIVELY.
   ELEMENT D15W6-1.15104 IS DISTORTING EXCESSIVELY.
   ELEMENT D15W6-1.15331 IS DISTORTING EXCESSIVELY.
   ELEMENT D15W6-1.15331 IS DISTORTING EXCESSIVELY.
   ELEMENT D15W6-1.15331 IS DISTORTING EXCESSIVELY.
   ELEMENT D15W6-1.15332 IS DISTORTING EXCESSIVELY.
   ELEMENT D15W6-1.15332 IS DISTORTING EXCESSIVELY.
   ELEMENT D15W6-1.15334 IS DISTORTING EXCESSIVELY.
   ELEMENT D15W6-1.15334 IS DISTORTING EXCESSIVELY.
   ELEMENT D15W6-1.15334 IS DISTORTING EXCESSIVELY.
   ELEMENT D15W6-1.17195 IS DISTORTING EXCESSIVELY.
   ELEMENT D15W6-1.17195 IS DISTORTING EXCESSIVELY.
   ELEMENT D15W6-1.17340 IS DISTORTING EXCESSIVELY.
   ELEMENT D15W6-1.17490 IS DISTORTING EXCESSIVELY.
   ELEMENT D15W6-1.17490 IS DISTORTING EXCESSIVELY.
   ELEMENT D15W6-1.17649 IS DISTORTING EXCESSIVELY.
   ELEMENT D15W6-1.17806 IS DISTORTING EXCESSIVELY.
   ELEMENT D15W6-1.17969 IS DISTORTING EXCESSIVELY.
   ELEMENT D15W6-1.17969 IS DISTORTING EXCESSIVELY.
   ELEMENT D15W6-1.17969 IS DISTORTING EXCESSIVELY.
   ELEMENT D15W6-1.17969 IS DISTORTING EXCESSIVELY.
   ELEMENT D15W6-1.17970 IS DISTORTING EXCESSIVELY.
   ELEMENT D15W6-1.17970 IS DISTORTING EXCESSIVELY.
   ELEMENT D15W6-1.17971 IS DISTORTING EXCESSIVELY.
   ELEMENT D15W6-1.17971 IS DISTORTING EXCESSIVELY.
   ELEMENT D15W6-1.17971 IS DISTORTING EXCESSIVELY.
   ELEMENT D15W6-1.17973 IS DISTORTING EXCESSIVELY.
   ELEMENT D15W6-1.17973 IS DISTORTING EXCESSIVELY.
   ELEMENT D15W6-1.17973 IS DISTORTING EXCESSIVELY.
   ELEMENT D15W6-1.17973 IS DISTORTING EXCESSIVELY.
   ELEMENT D15W6-1.17974 IS DISTORTING EXCESSIVELY.
   ELEMENT D15W6-1.17974 IS DISTORTING EXCESSIVELY.
   ELEMENT D15W6-1.17974 IS DISTORTING EXCESSIVELY.
   ELEMENT D15W6-1.17974 IS DISTORTING EXCESSIVELY.
   ELEMENT D15W6-1.17975 IS DISTORTING EXCESSIVELY.
   ELEMENT D15W6-1.17975 IS DISTORTING EXCESSIVELY.
   ELEMENT D15W6-1.17975 IS DISTORTING EXCESSIVELY.
   ELEMENT D15W6-1.17975 IS DISTORTING EXCESSIVELY.
   ELEMENT D15W6-1.17976 IS DISTORTING EXCESSIVELY.
   ELEMENT D15W6-1.17976 IS DISTORTING EXCESSIVELY.
   ELEMENT D15W6-1.17976 IS DISTORTING EXCESSIVELY.
   ELEMENT D15W6-1.17976 IS DISTORTING EXCESSIVELY.
   ELEMENT D15W6-1.20494 IS DISTORTING EXCESSIVELY.
   ELEMENT D15W6-1.20494 IS DISTORTING EXCESSIVELY.
   ELEMENT D15W6-1.20840 IS DISTORTING EXCESSIVELY.
   ELEMENT D15W6-1.20840 IS DISTORTING EXCESSIVELY.
   ELEMENT D15W6-1.21195 IS DISTORTING EXCESSIVELY.
   ELEMENT D15W6-1.21195 IS DISTORTING EXCESSIVELY.
   ELEMENT D15W6-1.21195 IS DISTORTING EXCESSIVELY.
   ELEMENT D15W6-1.21195 IS DISTORTING EXCESSIVELY.
   ELEMENT D15W6-1.21200 IS DISTORTING EXCESSIVELY.
   ELEMENT D15W6-1.21535 IS DISTORTING EXCESSIVELY.
   ELEMENT D15W6-1.21535 IS DISTORTING EXCESSIVELY.
   ELEMENT D15W6-1.21681 IS DISTORTING EXCESSIVELY.
   ELEMENT D15W6-1.21681 IS DISTORTING EXCESSIVELY.
   ELEMENT D15W6-1.21681 IS DISTORTING EXCESSIVELY.
   ELEMENT D15W6-1.21681 IS DISTORTING EXCESSIVELY.
   ELEMENT D15W6-1.21685 IS DISTORTING EXCESSIVELY.
   ELEMENT D15W6-1.21685 IS DISTORTING EXCESSIVELY.
   ELEMENT D15W6-1.21686 IS DISTORTING EXCESSIVELY.
   ELEMENT D15W6-1.21686 IS DISTORTING EXCESSIVELY.
   ELEMENT D15W6-1.21686 IS DISTORTING EXCESSIVELY.
   ELEMENT D15W6-1.21686 IS DISTORTING EXCESSIVELY.
   ELEMENT D15W6-1.21687 IS DISTORTING EXCESSIVELY.
   ELEMENT D15W6-1.21687 IS DISTORTING EXCESSIVELY.
   ELEMENT D15W6-1.21687 IS DISTORTING EXCESSIVELY.
   ELEMENT D15W6-1.21687 IS DISTORTING EXCESSIVELY.
   ELEMENT D15W6-1.22110 IS DISTORTING EXCESSIVELY.
   ELEMENT D15W6-1.22110 IS DISTORTING EXCESSIVELY.
   ELEMENT D15W6-1.22110 IS DISTORTING EXCESSIVELY.
   ELEMENT D15W6-1.22111 IS DISTORTING EXCESSIVELY.
   ELEMENT D15W6-1.22111 IS DISTORTING EXCESSIVELY.
   ELEMENT D15W6-1.22235 IS DISTORTING EXCESSIVELY.
   ELEMENT D15W6-1.22235 IS DISTORTING EXCESSIVELY.
   ELEMENT D15W6-1.22237 IS DISTORTING EXCESSIVELY.
   ELEMENT D15W6-1.22239 IS DISTORTING EXCESSIVELY.
   ELEMENT D15W6-1.22239 IS DISTORTING EXCESSIVELY.
   ELEMENT D15W6-1.22239 IS DISTORTING EXCESSIVELY.
   ELEMENT D15W6-1.22239 IS DISTORTING EXCESSIVELY.
   ELEMENT D15W6-1.22240 IS DISTORTING EXCESSIVELY.
   ELEMENT D15W6-1.22240 IS DISTORTING EXCESSIVELY.
   ELEMENT D15W6-1.22240 IS DISTORTING EXCESSIVELY.
   ELEMENT D15W6-1.22240 IS DISTORTING EXCESSIVELY.
   ELEMENT D15W6-1.22482 IS DISTORTING EXCESSIVELY.
   ELEMENT D15W6-1.22486 IS DISTORTING EXCESSIVELY.
   ELEMENT D15W6-1.22486 IS DISTORTING EXCESSIVELY.
   ELEMENT D15W6-1.22530 IS DISTORTING EXCESSIVELY.
   ELEMENT D15W6-1.22530 IS DISTORTING EXCESSIVELY.
   ELEMENT D15W6-1.22534 IS DISTORTING EXCESSIVELY.
   ELEMENT D15W6-1.22705 IS DISTORTING EXCESSIVELY.
   ELEMENT D15W6-1.22705 IS DISTORTING EXCESSIVELY.
   ELEMENT D15W6-1.22705 IS DISTORTING EXCESSIVELY.
   ELEMENT D15W6-1.22705 IS DISTORTING EXCESSIVELY.
   ELEMENT D15W6-1.22710 IS DISTORTING EXCESSIVELY.
   ELEMENT D15W6-1.22710 IS DISTORTING EXCESSIVELY.
   ELEMENT D15W6-1.22710 IS DISTORTING EXCESSIVELY.
   ELEMENT D15W6-1.22967 IS DISTORTING EXCESSIVELY.
   ELEMENT D15W6-1.22967 IS DISTORTING EXCESSIVELY.
   ELEMENT D15W6-1.23094 IS DISTORTING EXCESSIVELY.
   ELEMENT D15W6-1.23105 IS DISTORTING EXCESSIVELY.
   ELEMENT D15W6-1.23105 IS DISTORTING EXCESSIVELY.
   ELEMENT D15W6-1.23105 IS DISTORTING EXCESSIVELY.
   ELEMENT D15W6-1.23105 IS DISTORTING EXCESSIVELY.
   ELEMENT D15W6-1.23106 IS DISTORTING EXCESSIVELY.
   ELEMENT D15W6-1.23107 IS DISTORTING EXCESSIVELY.
   ELEMENT D15W6-1.23107 IS DISTORTING EXCESSIVELY.
   ELEMENT D15W6-1.23107 IS DISTORTING EXCESSIVELY.
   ELEMENT D15W6-1.23110 IS DISTORTING EXCESSIVELY.
   ELEMENT D15W6-1.23110 IS DISTORTING EXCESSIVELY.
   ELEMENT D15W6-1.23110 IS DISTORTING EXCESSIVELY.
   ELEMENT D15W6-1.23110 IS DISTORTING EXCESSIVELY.
   ELEMENT D15W6-1.23112 IS DISTORTING EXCESSIVELY.
   ELEMENT D15W6-1.23112 IS DISTORTING EXCESSIVELY.
   ELEMENT D15W6-1.24676 IS DISTORTING EXCESSIVELY.
   ELEMENT D15W6-1.24676 IS DISTORTING EXCESSIVELY.
   ELEMENT D15W6-1.24676 IS DISTORTING EXCESSIVELY.
   ELEMENT D15W6-1.24676 IS DISTORTING EXCESSIVELY.
   ELEMENT D15W6-1.25630 IS DISTORTING EXCESSIVELY.
   ELEMENT D15W6-1.25630 IS DISTORTING EXCESSIVELY.
   ELEMENT D15W6-1.25630 IS DISTORTING EXCESSIVELY.
   ELEMENT D15W6-1.25631 IS DISTORTING EXCESSIVELY.
   ELEMENT D15W6-1.25631 IS DISTORTING EXCESSIVELY.
   ELEMENT D15W6-1.25631 IS DISTORTING EXCESSIVELY.
   ELEMENT D15W6-1.25631 IS DISTORTING EXCESSIVELY.
   ELEMENT D15W6-1.26786 IS DISTORTING EXCESSIVELY.
   ELEMENT D15W6-1.26786 IS DISTORTING EXCESSIVELY.
   ELEMENT D15W6-1.26786 IS DISTORTING EXCESSIVELY.
   ELEMENT D15W6-1.27600 IS DISTORTING EXCESSIVELY.
   ELEMENT D15W6-1.27600 IS DISTORTING EXCESSIVELY.
   ELEMENT D15W6-1.28294 IS DISTORTING EXCESSIVELY.
   ELEMENT D15W6-1.28294 IS DISTORTING EXCESSIVELY.
   ELEMENT D15W6-1.28294 IS DISTORTING EXCESSIVELY.
   ELEMENT D15W6-1.28842 IS DISTORTING EXCESSIVELY.
   ELEMENT D15W6-1.28979 IS DISTORTING EXCESSIVELY.
   ELEMENT D15W6-1.28979 IS DISTORTING EXCESSIVELY.
   ELEMENT D15W6-1.28979 IS DISTORTING EXCESSIVELY.
   ELEMENT D15W6-1.28979 IS DISTORTING EXCESSIVELY.
   ELEMENT D15W6-1.28981 IS DISTORTING EXCESSIVELY.
   ELEMENT D15W6-1.28981 IS DISTORTING EXCESSIVELY.
   ELEMENT D15W6-1.28981 IS DISTORTING EXCESSIVELY.
   ELEMENT D15W6-1.28981 IS DISTORTING EXCESSIVELY.
   ELEMENT D15W6-1.29354 IS DISTORTING EXCESSIVELY.
   ELEMENT D15W6-1.29354 IS DISTORTING EXCESSIVELY.
   ELEMENT D15W6-1.29354 IS DISTORTING EXCESSIVELY.
   ELEMENT D15W6-1.29354 IS DISTORTING EXCESSIVELY.
   ELEMENT D15W6-1.29355 IS DISTORTING EXCESSIVELY.
   ELEMENT D15W6-1.29355 IS DISTORTING EXCESSIVELY.
   ELEMENT D15W6-1.29355 IS DISTORTING EXCESSIVELY.
   ELEMENT D15W6-1.29355 IS DISTORTING EXCESSIVELY.
   ELEMENT D15W6-1.29359 IS DISTORTING EXCESSIVELY.
   ELEMENT D15W6-1.29359 IS DISTORTING EXCESSIVELY.
   ELEMENT D15W6-1.29656 IS DISTORTING EXCESSIVELY.
   ELEMENT D15W6-1.29755 IS DISTORTING EXCESSIVELY.
   ELEMENT D15W6-1.29755 IS DISTORTING EXCESSIVELY.
   ELEMENT D15W6-1.29755 IS DISTORTING EXCESSIVELY.
   ELEMENT D15W6-1.29755 IS DISTORTING EXCESSIVELY.
   ELEMENT D15W6-1.29756 IS DISTORTING EXCESSIVELY.
   ELEMENT D15W6-1.29756 IS DISTORTING EXCESSIVELY.
   ELEMENT D15W6-1.29756 IS DISTORTING EXCESSIVELY.
   ELEMENT D15W6-1.29756 IS DISTORTING EXCESSIVELY.
   ELEMENT D15W6-1.29959 IS DISTORTING EXCESSIVELY.
   ELEMENT D15W6-1.29959 IS DISTORTING EXCESSIVELY.
   ELEMENT D15W6-1.29959 IS DISTORTING EXCESSIVELY.
   ELEMENT D15W6-1.29959 IS DISTORTING EXCESSIVELY.
   ELEMENT D15W6-1.30034 IS DISTORTING EXCESSIVELY.
   ELEMENT D15W6-1.30034 IS DISTORTING EXCESSIVELY.
   ELEMENT D15W6-1.30034 IS DISTORTING EXCESSIVELY.
   ELEMENT D15W6-1.30034 IS DISTORTING EXCESSIVELY.
   ELEMENT D15W6-1.30169 IS DISTORTING EXCESSIVELY.
   ELEMENT D15W6-1.30265 IS DISTORTING EXCESSIVELY.
   ELEMENT D15W6-1.30265 IS DISTORTING EXCESSIVELY.
   ELEMENT D15W6-1.30265 IS DISTORTING EXCESSIVELY.
   ELEMENT D15W6-1.30265 IS DISTORTING EXCESSIVELY.
   ELEMENT D15W6-1.30267 IS DISTORTING EXCESSIVELY.
   ELEMENT D15W6-1.30267 IS DISTORTING EXCESSIVELY.
   ELEMENT D15W6-1.30267 IS DISTORTING EXCESSIVELY.
   ELEMENT D15W6-1.30269 IS DISTORTING EXCESSIVELY.
   ELEMENT D15W6-1.30269 IS DISTORTING EXCESSIVELY.
   ELEMENT D15W6-1.30269 IS DISTORTING EXCESSIVELY.
   ELEMENT D15W6-1.30269 IS DISTORTING EXCESSIVELY.
   ELEMENT D15W6-1.30270 IS DISTORTING EXCESSIVELY.
   ELEMENT D15W6-1.30270 IS DISTORTING EXCESSIVELY.
   ELEMENT D15W6-1.30270 IS DISTORTING EXCESSIVELY.
   ELEMENT D15W6-1.30270 IS DISTORTING EXCESSIVELY.
   ELEMENT D15W6-1.30271 IS DISTORTING EXCESSIVELY.
   ELEMENT D15W6-1.30271 IS DISTORTING EXCESSIVELY.
   ELEMENT D15W6-1.30271 IS DISTORTING EXCESSIVELY.
   ELEMENT D15W6-1.30271 IS DISTORTING EXCESSIVELY.
   ELEMENT D15W6-1.30272 IS DISTORTING EXCESSIVELY.
   ELEMENT D15W6-1.90 IS DISTORTING EXCESSIVELY.
   ELEMENT D15W6-1.321 IS DISTORTING EXCESSIVELY.
   ELEMENT D15W6-1.321 IS DISTORTING EXCESSIVELY.
   ELEMENT D15W6-1.321 IS DISTORTING EXCESSIVELY.
   ELEMENT D15W6-1.321 IS DISTORTING EXCESSIVELY.
   ELEMENT D15W6-1.324 IS DISTORTING EXCESSIVELY.
   ELEMENT D15W6-1.324 IS DISTORTING EXCESSIVELY.
   ELEMENT D15W6-1.324 IS DISTORTING EXCESSIVELY.
   ELEMENT D15W6-1.324 IS DISTORTING EXCESSIVELY.
   ELEMENT D15W6-1.325 IS DISTORTING EXCESSIVELY.
   ELEMENT D15W6-1.325 IS DISTORTING EXCESSIVELY.
   ELEMENT D15W6-1.325 IS DISTORTING EXCESSIVELY.
   ELEMENT D15W6-1.325 IS DISTORTING EXCESSIVELY.
   ELEMENT D15W6-1.326 IS DISTORTING EXCESSIVELY.
   ELEMENT D15W6-1.326 IS DISTORTING EXCESSIVELY.
   ELEMENT D15W6-1.326 IS DISTORTING EXCESSIVELY.
   ELEMENT D15W6-1.326 IS DISTORTING EXCESSIVELY.
   ELEMENT D15W6-1.327 IS DISTORTING EXCESSIVELY.
   ELEMENT D15W6-1.327 IS DISTORTING EXCESSIVELY.
   ELEMENT D15W6-1.327 IS DISTORTING EXCESSIVELY.
   ELEMENT D15W6-1.327 IS DISTORTING EXCESSIVELY.
   ELEMENT D15W6-1.328 IS DISTORTING EXCESSIVELY.
   ELEMENT D15W6-1.328 IS DISTORTING EXCESSIVELY.
   ELEMENT D15W6-1.328 IS DISTORTING EXCESSIVELY.
   ELEMENT D15W6-1.328 IS DISTORTING EXCESSIVELY.
   ELEMENT D15W6-1.998 IS DISTORTING EXCESSIVELY.
   ELEMENT D15W6-1.1082 IS DISTORTING EXCESSIVELY.
   ELEMENT D15W6-1.1082 IS DISTORTING EXCESSIVELY.
   ELEMENT D15W6-1.1082 IS DISTORTING EXCESSIVELY.
   ELEMENT D15W6-1.1082 IS DISTORTING EXCESSIVELY.
   ELEMENT D15W6-1.1087 IS DISTORTING EXCESSIVELY.
   ELEMENT D15W6-1.1087 IS DISTORTING EXCESSIVELY.
   ELEMENT D15W6-1.1466 IS DISTORTING EXCESSIVELY.
   ELEMENT D15W6-1.1577 IS DISTORTING EXCESSIVELY.
   ELEMENT D15W6-1.1710 IS DISTORTING EXCESSIVELY.
   ELEMENT D15W6-1.1710 IS DISTORTING EXCESSIVELY.
   ELEMENT D15W6-1.1710 IS DISTORTING EXCESSIVELY.
   ELEMENT D15W6-1.1710 IS DISTORTING EXCESSIVELY.
   ELEMENT D15W6-1.1956 IS DISTORTING EXCESSIVELY.
   ELEMENT D15W6-1.2104 IS DISTORTING EXCESSIVELY.
   ELEMENT D15W6-1.2104 IS DISTORTING EXCESSIVELY.
   ELEMENT D15W6-1.2239 IS DISTORTING EXCESSIVELY.
   ELEMENT D15W6-1.2239 IS DISTORTING EXCESSIVELY.
   ELEMENT D15W6-1.2240 IS DISTORTING EXCESSIVELY.
   ELEMENT D15W6-1.2240 IS DISTORTING EXCESSIVELY.
   ELEMENT D15W6-1.2240 IS DISTORTING EXCESSIVELY.
   ELEMENT D15W6-1.2321 IS DISTORTING EXCESSIVELY.
   ELEMENT D15W6-1.2321 IS DISTORTING EXCESSIVELY.
   ELEMENT D15W6-1.2321 IS DISTORTING EXCESSIVELY.
   ELEMENT D15W6-1.2505 IS DISTORTING EXCESSIVELY.
   ELEMENT D15W6-1.2573 IS DISTORTING EXCESSIVELY.
   ELEMENT D15W6-1.2573 IS DISTORTING EXCESSIVELY.
   ELEMENT D15W6-1.2573 IS DISTORTING EXCESSIVELY.
   ELEMENT D15W6-1.2574 IS DISTORTING EXCESSIVELY.
   ELEMENT D15W6-1.2574 IS DISTORTING EXCESSIVELY.
   ELEMENT D15W6-1.2574 IS DISTORTING EXCESSIVELY.
   ELEMENT D15W6-1.2576 IS DISTORTING EXCESSIVELY.
   ELEMENT D15W6-1.2576 IS DISTORTING EXCESSIVELY.
   ELEMENT D15W6-1.2576 IS DISTORTING EXCESSIVELY.
   ELEMENT D15W6-1.2770 IS DISTORTING EXCESSIVELY.
   ELEMENT D15W6-1.2805 IS DISTORTING EXCESSIVELY.
   ELEMENT D15W6-1.2805 IS DISTORTING EXCESSIVELY.
   ELEMENT D15W6-1.2993 IS DISTORTING EXCESSIVELY.
   ELEMENT D15W6-1.2993 IS DISTORTING EXCESSIVELY.
   ELEMENT D15W6-1.2993 IS DISTORTING EXCESSIVELY.
   ELEMENT D15W6-1.2994 IS DISTORTING EXCESSIVELY.
   ELEMENT D15W6-1.2994 IS DISTORTING EXCESSIVELY.
   ELEMENT D15W6-1.2994 IS DISTORTING EXCESSIVELY.
   ELEMENT D15W6-1.2995 IS DISTORTING EXCESSIVELY.
   ELEMENT D15W6-1.2995 IS DISTORTING EXCESSIVELY.
   ELEMENT D15W6-1.2995 IS DISTORTING EXCESSIVELY.
   ELEMENT D15W6-1.2995 IS DISTORTING EXCESSIVELY.
   ELEMENT D15W6-1.2996 IS DISTORTING EXCESSIVELY.
   ELEMENT D15W6-1.2996 IS DISTORTING EXCESSIVELY.
   ELEMENT D15W6-1.2996 IS DISTORTING EXCESSIVELY.
   ELEMENT D15W6-1.2996 IS DISTORTING EXCESSIVELY.
   ELEMENT D15W6-1.2997 IS DISTORTING EXCESSIVELY.
   ELEMENT D15W6-1.2997 IS DISTORTING EXCESSIVELY.
   ELEMENT D15W6-1.2997 IS DISTORTING EXCESSIVELY.
   ELEMENT D15W6-1.2997 IS DISTORTING EXCESSIVELY.
   ELEMENT D15W6-1.2998 IS DISTORTING EXCESSIVELY.
   ELEMENT D15W6-1.2998 IS DISTORTING EXCESSIVELY.
   ELEMENT D15W6-1.2998 IS DISTORTING EXCESSIVELY.
   ELEMENT D15W6-1.2998 IS DISTORTING EXCESSIVELY.
   ELEMENT D15W6-1.2999 IS DISTORTING EXCESSIVELY.
   ELEMENT D15W6-1.2999 IS DISTORTING EXCESSIVELY.
   ELEMENT D15W6-1.2999 IS DISTORTING EXCESSIVELY.
   ELEMENT D15W6-1.2999 IS DISTORTING EXCESSIVELY.
   ELEMENT D15W6-1.3879 IS DISTORTING EXCESSIVELY.
   ELEMENT D15W6-1.3906 IS DISTORTING EXCESSIVELY.
   ELEMENT D15W6-1.3906 IS DISTORTING EXCESSIVELY.
   ELEMENT D15W6-1.3906 IS DISTORTING EXCESSIVELY.
   ELEMENT D15W6-1.3906 IS DISTORTING EXCESSIVELY.
   ELEMENT D15W6-1.3907 IS DISTORTING EXCESSIVELY.
   ELEMENT D15W6-1.3907 IS DISTORTING EXCESSIVELY.
   ELEMENT D15W6-1.3907 IS DISTORTING EXCESSIVELY.
   ELEMENT D15W6-1.3907 IS DISTORTING EXCESSIVELY.
   ELEMENT D15W6-1.3908 IS DISTORTING EXCESSIVELY.
   ELEMENT D15W6-1.3908 IS DISTORTING EXCESSIVELY.
   ELEMENT D15W6-1.3908 IS DISTORTING EXCESSIVELY.
   ELEMENT D15W6-1.3908 IS DISTORTING EXCESSIVELY.
   ELEMENT D15W6-1.3909 IS DISTORTING EXCESSIVELY.
   ELEMENT D15W6-1.4070 IS DISTORTING EXCESSIVELY.
   ELEMENT D15W6-1.4070 IS DISTORTING EXCESSIVELY.
   ELEMENT D15W6-1.4070 IS DISTORTING EXCESSIVELY.
   ELEMENT D15W6-1.4070 IS DISTORTING EXCESSIVELY.
   ELEMENT D15W6-1.4072 IS DISTORTING EXCESSIVELY.
   ELEMENT D15W6-1.4072 IS DISTORTING EXCESSIVELY.
   ELEMENT D15W6-1.4072 IS DISTORTING EXCESSIVELY.
   ELEMENT D15W6-1.4193 IS DISTORTING EXCESSIVELY.
   ELEMENT D15W6-1.4193 IS DISTORTING EXCESSIVELY.
   ELEMENT D15W6-1.4193 IS DISTORTING EXCESSIVELY.
   ELEMENT D15W6-1.4194 IS DISTORTING EXCESSIVELY.
   ELEMENT D15W6-1.4194 IS DISTORTING EXCESSIVELY.
   ELEMENT D15W6-1.4194 IS DISTORTING EXCESSIVELY.
   ELEMENT D15W6-1.4194 IS DISTORTING EXCESSIVELY.
   ELEMENT D15W6-1.4195 IS DISTORTING EXCESSIVELY.
   ELEMENT D15W6-1.4195 IS DISTORTING EXCESSIVELY.
   ELEMENT D15W6-1.4195 IS DISTORTING EXCESSIVELY.
   ELEMENT D15W6-1.4196 IS DISTORTING EXCESSIVELY.
   ELEMENT D15W6-1.4196 IS DISTORTING EXCESSIVELY.
   ELEMENT D15W6-1.4457 IS DISTORTING EXCESSIVELY.
   ELEMENT D15W6-1.4457 IS DISTORTING EXCESSIVELY.
   ELEMENT D15W6-1.4457 IS DISTORTING EXCESSIVELY.
   ELEMENT D15W6-1.4457 IS DISTORTING EXCESSIVELY.
   ELEMENT D15W6-1.4458 IS DISTORTING EXCESSIVELY.
   ELEMENT D15W6-1.4738 IS DISTORTING EXCESSIVELY.
   ELEMENT D15W6-1.4738 IS DISTORTING EXCESSIVELY.
   ELEMENT D15W6-1.4738 IS DISTORTING EXCESSIVELY.
   ELEMENT D15W6-1.4738 IS DISTORTING EXCESSIVELY.
   ELEMENT D15W6-1.4740 IS DISTORTING EXCESSIVELY.
   ELEMENT D15W6-1.4740 IS DISTORTING EXCESSIVELY.
   ELEMENT D15W6-1.4740 IS DISTORTING EXCESSIVELY.
   ELEMENT D15W6-1.4740 IS DISTORTING EXCESSIVELY.
   ELEMENT D15W6-1.5089 IS DISTORTING EXCESSIVELY.
   ELEMENT D15W6-1.5089 IS DISTORTING EXCESSIVELY.
   ELEMENT D15W6-1.5093 IS DISTORTING EXCESSIVELY.
   ELEMENT D15W6-1.5094 IS DISTORTING EXCESSIVELY.
   ELEMENT D15W6-1.5094 IS DISTORTING EXCESSIVELY.
   ELEMENT D15W6-1.5094 IS DISTORTING EXCESSIVELY.
   ELEMENT D15W6-1.5211 IS DISTORTING EXCESSIVELY.
   ELEMENT D15W6-1.5211 IS DISTORTING EXCESSIVELY.
   ELEMENT D15W6-1.5211 IS DISTORTING EXCESSIVELY.
   ELEMENT D15W6-1.5249 IS DISTORTING EXCESSIVELY.
   ELEMENT D15W6-1.5249 IS DISTORTING EXCESSIVELY.
   ELEMENT D15W6-1.5250 IS DISTORTING EXCESSIVELY.
   ELEMENT D15W6-1.5250 IS DISTORTING EXCESSIVELY.
   ELEMENT D15W6-1.5250 IS DISTORTING EXCESSIVELY.
   ELEMENT D15W6-1.5252 IS DISTORTING EXCESSIVELY.
   ELEMENT D15W6-1.5501 IS DISTORTING EXCESSIVELY.
   ELEMENT D15W6-1.5501 IS DISTORTING EXCESSIVELY.
   ELEMENT D15W6-1.5501 IS DISTORTING EXCESSIVELY.
   ELEMENT D15W6-1.5754 IS DISTORTING EXCESSIVELY.
   ELEMENT D15W6-1.5754 IS DISTORTING EXCESSIVELY.
   ELEMENT D15W6-1.5754 IS DISTORTING EXCESSIVELY.
   ELEMENT D15W6-1.5755 IS DISTORTING EXCESSIVELY.
   ELEMENT D15W6-1.5755 IS DISTORTING EXCESSIVELY.
   ELEMENT D15W6-1.5756 IS DISTORTING EXCESSIVELY.
   ELEMENT D15W6-1.5756 IS DISTORTING EXCESSIVELY.
   ELEMENT D15W6-1.5756 IS DISTORTING EXCESSIVELY.
   ELEMENT D15W6-1.5757 IS DISTORTING EXCESSIVELY.
   ELEMENT D15W6-1.5757 IS DISTORTING EXCESSIVELY.
   ELEMENT D15W6-1.5757 IS DISTORTING EXCESSIVELY.
   ELEMENT D15W6-1.5757 IS DISTORTING EXCESSIVELY.
   ELEMENT D15W6-1.5758 IS DISTORTING EXCESSIVELY.
   ELEMENT D15W6-1.5758 IS DISTORTING EXCESSIVELY.
   ELEMENT D15W6-1.5759 IS DISTORTING EXCESSIVELY.
   ELEMENT D15W6-1.6324 IS DISTORTING EXCESSIVELY.
   ELEMENT D15W6-1.6324 IS DISTORTING EXCESSIVELY.
   ELEMENT D15W6-1.6324 IS DISTORTING EXCESSIVELY.
   ELEMENT D15W6-1.6325 IS DISTORTING EXCESSIVELY.
   ELEMENT D15W6-1.6325 IS DISTORTING EXCESSIVELY.
   ELEMENT D15W6-1.6325 IS DISTORTING EXCESSIVELY.
   ELEMENT D15W6-1.6425 IS DISTORTING EXCESSIVELY.
   ELEMENT D15W6-1.6425 IS DISTORTING EXCESSIVELY.
   ELEMENT D15W6-1.6426 IS DISTORTING EXCESSIVELY.
   ELEMENT D15W6-1.6426 IS DISTORTING EXCESSIVELY.
   ELEMENT D15W6-1.6430 IS DISTORTING EXCESSIVELY.
   ELEMENT D15W6-1.6430 IS DISTORTING EXCESSIVELY.
   ELEMENT D15W6-1.6473 IS DISTORTING EXCESSIVELY.
   ELEMENT D15W6-1.6473 IS DISTORTING EXCESSIVELY.
   ELEMENT D15W6-1.6473 IS DISTORTING EXCESSIVELY.
   ELEMENT D15W6-1.6473 IS DISTORTING EXCESSIVELY.
   ELEMENT D15W6-1.6474 IS DISTORTING EXCESSIVELY.
   ELEMENT D15W6-1.6474 IS DISTORTING EXCESSIVELY.
   ELEMENT D15W6-1.6474 IS DISTORTING EXCESSIVELY.
   ELEMENT D15W6-1.6474 IS DISTORTING EXCESSIVELY.
   ELEMENT D15W6-1.6475 IS DISTORTING EXCESSIVELY.
   ELEMENT D15W6-1.6475 IS DISTORTING EXCESSIVELY.
   ELEMENT D15W6-1.6475 IS DISTORTING EXCESSIVELY.
   ELEMENT D15W6-1.6475 IS DISTORTING EXCESSIVELY.
   ELEMENT D15W6-1.6476 IS DISTORTING EXCESSIVELY.
   ELEMENT D15W6-1.6476 IS DISTORTING EXCESSIVELY.
   ELEMENT D15W6-1.6771 IS DISTORTING EXCESSIVELY.
   ELEMENT D15W6-1.6791 IS DISTORTING EXCESSIVELY.
   ELEMENT D15W6-1.6792 IS DISTORTING EXCESSIVELY.
   ELEMENT D15W6-1.6792 IS DISTORTING EXCESSIVELY.
   ELEMENT D15W6-1.6901 IS DISTORTING EXCESSIVELY.
   ELEMENT D15W6-1.6901 IS DISTORTING EXCESSIVELY.
   ELEMENT D15W6-1.6901 IS DISTORTING EXCESSIVELY.
   ELEMENT D15W6-1.7058 IS DISTORTING EXCESSIVELY.
   ELEMENT D15W6-1.7058 IS DISTORTING EXCESSIVELY.
   ELEMENT D15W6-1.7058 IS DISTORTING EXCESSIVELY.
   ELEMENT D15W6-1.7058 IS DISTORTING EXCESSIVELY.
   ELEMENT D15W6-1.7338 IS DISTORTING EXCESSIVELY.
   ELEMENT D15W6-1.7338 IS DISTORTING EXCESSIVELY.
   ELEMENT D15W6-1.7338 IS DISTORTING EXCESSIVELY.
   ELEMENT D15W6-1.7343 IS DISTORTING EXCESSIVELY.
   ELEMENT D15W6-1.7343 IS DISTORTING EXCESSIVELY.
   ELEMENT D15W6-1.7343 IS DISTORTING EXCESSIVELY.
   ELEMENT D15W6-1.7343 IS DISTORTING EXCESSIVELY.
   ELEMENT D15W6-1.7676 IS DISTORTING EXCESSIVELY.
   ELEMENT D15W6-1.7676 IS DISTORTING EXCESSIVELY.
   ELEMENT D15W6-1.7837 IS DISTORTING EXCESSIVELY.
   ELEMENT D15W6-1.7837 IS DISTORTING EXCESSIVELY.
   ELEMENT D15W6-1.7889 IS DISTORTING EXCESSIVELY.
   ELEMENT D15W6-1.7889 IS DISTORTING EXCESSIVELY.
   ELEMENT D15W6-1.7889 IS DISTORTING EXCESSIVELY.
   ELEMENT D15W6-1.7891 IS DISTORTING EXCESSIVELY.
   ELEMENT D15W6-1.7891 IS DISTORTING EXCESSIVELY.
   ELEMENT D15W6-1.7891 IS DISTORTING EXCESSIVELY.
   ELEMENT D15W6-1.8243 IS DISTORTING EXCESSIVELY.
   ELEMENT D15W6-1.8243 IS DISTORTING EXCESSIVELY.
   ELEMENT D15W6-1.8245 IS DISTORTING EXCESSIVELY.
   ELEMENT D15W6-1.8245 IS DISTORTING EXCESSIVELY.
   ELEMENT D15W6-1.8248 IS DISTORTING EXCESSIVELY.
   ELEMENT D15W6-1.8248 IS DISTORTING EXCESSIVELY.
   ELEMENT D15W6-1.8248 IS DISTORTING EXCESSIVELY.
   ELEMENT D15W6-1.8248 IS DISTORTING EXCESSIVELY.
   ELEMENT D15W6-1.8538 IS DISTORTING EXCESSIVELY.
   ELEMENT D15W6-1.8538 IS DISTORTING EXCESSIVELY.
   ELEMENT D15W6-1.8539 IS DISTORTING EXCESSIVELY.
   ELEMENT D15W6-1.8539 IS DISTORTING EXCESSIVELY.
   ELEMENT D15W6-1.8683 IS DISTORTING EXCESSIVELY.
   ELEMENT D15W6-1.8683 IS DISTORTING EXCESSIVELY.
   ELEMENT D15W6-1.8683 IS DISTORTING EXCESSIVELY.
   ELEMENT D15W6-1.8683 IS DISTORTING EXCESSIVELY.
   ELEMENT D15W6-1.8827 IS DISTORTING EXCESSIVELY.
   ELEMENT D15W6-1.8827 IS DISTORTING EXCESSIVELY.
   ELEMENT D15W6-1.8827 IS DISTORTING EXCESSIVELY.
   ELEMENT D15W6-1.8827 IS DISTORTING EXCESSIVELY.
   ELEMENT D15W6-1.8832 IS DISTORTING EXCESSIVELY.
   ELEMENT D15W6-1.9034 IS DISTORTING EXCESSIVELY.
   ELEMENT D15W6-1.9034 IS DISTORTING EXCESSIVELY.
   ELEMENT D15W6-1.9034 IS DISTORTING EXCESSIVELY.
   ELEMENT D15W6-1.9034 IS DISTORTING EXCESSIVELY.
   ELEMENT D15W6-1.9105 IS DISTORTING EXCESSIVELY.
   ELEMENT D15W6-1.9214 IS DISTORTING EXCESSIVELY.
   ELEMENT D15W6-1.9214 IS DISTORTING EXCESSIVELY.
   ELEMENT D15W6-1.9214 IS DISTORTING EXCESSIVELY.
   ELEMENT D15W6-1.9214 IS DISTORTING EXCESSIVELY.
   ELEMENT D15W6-1.9333 IS DISTORTING EXCESSIVELY.
   ELEMENT D15W6-1.9583 IS DISTORTING EXCESSIVELY.
   ELEMENT D15W6-1.9583 IS DISTORTING EXCESSIVELY.
   ELEMENT D15W6-1.9583 IS DISTORTING EXCESSIVELY.
   ELEMENT D15W6-1.9584 IS DISTORTING EXCESSIVELY.
   ELEMENT D15W6-1.9584 IS DISTORTING EXCESSIVELY.
   ELEMENT D15W6-1.9584 IS DISTORTING EXCESSIVELY.
   ELEMENT D15W6-1.9670 IS DISTORTING EXCESSIVELY.
   ELEMENT D15W6-1.9670 IS DISTORTING EXCESSIVELY.
   ELEMENT D15W6-1.9671 IS DISTORTING EXCESSIVELY.
   ELEMENT D15W6-1.9698 IS DISTORTING EXCESSIVELY.
   ELEMENT D15W6-1.9698 IS DISTORTING EXCESSIVELY.
   ELEMENT D15W6-1.9698 IS DISTORTING EXCESSIVELY.
   ELEMENT D15W6-1.9699 IS DISTORTING EXCESSIVELY.
   ELEMENT D15W6-1.9699 IS DISTORTING EXCESSIVELY.
   ELEMENT D15W6-1.9700 IS DISTORTING EXCESSIVELY.
   ELEMENT D15W6-1.9700 IS DISTORTING EXCESSIVELY.
   ELEMENT D15W6-1.9700 IS DISTORTING EXCESSIVELY.
   ELEMENT D15W6-1.9700 IS DISTORTING EXCESSIVELY.
   ELEMENT D15W6-1.9701 IS DISTORTING EXCESSIVELY.
   ELEMENT D15W6-1.9701 IS DISTORTING EXCESSIVELY.
   ELEMENT D15W6-1.9701 IS DISTORTING EXCESSIVELY.
   ELEMENT D15W6-1.9701 IS DISTORTING EXCESSIVELY.
   ELEMENT D15W6-1.9702 IS DISTORTING EXCESSIVELY.
   ELEMENT D15W6-1.10123 IS DISTORTING EXCESSIVELY.
   ELEMENT D15W6-1.10123 IS DISTORTING EXCESSIVELY.
   ELEMENT D15W6-1.10123 IS DISTORTING EXCESSIVELY.
   ELEMENT D15W6-1.10123 IS DISTORTING EXCESSIVELY.
   ELEMENT D15W6-1.10125 IS DISTORTING EXCESSIVELY.
   ELEMENT D15W6-1.10125 IS DISTORTING EXCESSIVELY.
   ELEMENT D15W6-1.10126 IS DISTORTING EXCESSIVELY.
   ELEMENT D15W6-1.10126 IS DISTORTING EXCESSIVELY.
   ELEMENT D15W6-1.10126 IS DISTORTING EXCESSIVELY.
   ELEMENT D15W6-1.10126 IS DISTORTING EXCESSIVELY.
   ELEMENT D15W6-1.10273 IS DISTORTING EXCESSIVELY.
   ELEMENT D15W6-1.10273 IS DISTORTING EXCESSIVELY.
   ELEMENT D15W6-1.10273 IS DISTORTING EXCESSIVELY.
   ELEMENT D15W6-1.10273 IS DISTORTING EXCESSIVELY.
   ELEMENT D15W6-1.10274 IS DISTORTING EXCESSIVELY.
   ELEMENT D15W6-1.10274 IS DISTORTING EXCESSIVELY.
   ELEMENT D15W6-1.10274 IS DISTORTING EXCESSIVELY.
   ELEMENT D15W6-1.10274 IS DISTORTING EXCESSIVELY.
   ELEMENT D15W6-1.10275 IS DISTORTING EXCESSIVELY.
   ELEMENT D15W6-1.10276 IS DISTORTING EXCESSIVELY.
   ELEMENT D15W6-1.10276 IS DISTORTING EXCESSIVELY.
   ELEMENT D15W6-1.10276 IS DISTORTING EXCESSIVELY.
   ELEMENT D15W6-1.10279 IS DISTORTING EXCESSIVELY.
   ELEMENT D15W6-1.10279 IS DISTORTING EXCESSIVELY.
   ELEMENT D15W6-1.10279 IS DISTORTING EXCESSIVELY.
   ELEMENT D15W6-1.10489 IS DISTORTING EXCESSIVELY.
   ELEMENT D15W6-1.10489 IS DISTORTING EXCESSIVELY.
   ELEMENT D15W6-1.10490 IS DISTORTING EXCESSIVELY.
   ELEMENT D15W6-1.10490 IS DISTORTING EXCESSIVELY.
   ELEMENT D15W6-1.10490 IS DISTORTING EXCESSIVELY.
   ELEMENT D15W6-1.10490 IS DISTORTING EXCESSIVELY.
   ELEMENT D15W6-1.10491 IS DISTORTING EXCESSIVELY.
   ELEMENT D15W6-1.10491 IS DISTORTING EXCESSIVELY.
   ELEMENT D15W6-1.10491 IS DISTORTING EXCESSIVELY.
   ELEMENT D15W6-1.10494 IS DISTORTING EXCESSIVELY.
   ELEMENT D15W6-1.10494 IS DISTORTING EXCESSIVELY.
   ELEMENT D15W6-1.10494 IS DISTORTING EXCESSIVELY.
   ELEMENT D15W6-1.10494 IS DISTORTING EXCESSIVELY.
   ELEMENT D15W6-1.10495 IS DISTORTING EXCESSIVELY.
   ELEMENT D15W6-1.10495 IS DISTORTING EXCESSIVELY.
   ELEMENT D15W6-1.10495 IS DISTORTING EXCESSIVELY.
   ELEMENT D15W6-1.10495 IS DISTORTING EXCESSIVELY.
   ELEMENT D15W6-1.10659 IS DISTORTING EXCESSIVELY.
   ELEMENT D15W6-1.10660 IS DISTORTING EXCESSIVELY.
   ELEMENT D15W6-1.10673 IS DISTORTING EXCESSIVELY.
   ELEMENT D15W6-1.10673 IS DISTORTING EXCESSIVELY.
   ELEMENT D15W6-1.10673 IS DISTORTING EXCESSIVELY.
   ELEMENT D15W6-1.10673 IS DISTORTING EXCESSIVELY.
   ELEMENT D15W6-1.10674 IS DISTORTING EXCESSIVELY.
   ELEMENT D15W6-1.10674 IS DISTORTING EXCESSIVELY.
   ELEMENT D15W6-1.10674 IS DISTORTING EXCESSIVELY.
   ELEMENT D15W6-1.10674 IS DISTORTING EXCESSIVELY.
   ELEMENT D15W6-1.10675 IS DISTORTING EXCESSIVELY.
   ELEMENT D15W6-1.10675 IS DISTORTING EXCESSIVELY.
   ELEMENT D15W6-1.10675 IS DISTORTING EXCESSIVELY.
   ELEMENT D15W6-1.10675 IS DISTORTING EXCESSIVELY.
   ELEMENT D15W6-1.10676 IS DISTORTING EXCESSIVELY.
   ELEMENT D15W6-1.10676 IS DISTORTING EXCESSIVELY.
   ELEMENT D15W6-1.10676 IS DISTORTING EXCESSIVELY.
   ELEMENT D15W6-1.10676 IS DISTORTING EXCESSIVELY.
   ELEMENT D15W6-1.10677 IS DISTORTING EXCESSIVELY.
   ELEMENT D15W6-1.10677 IS DISTORTING EXCESSIVELY.
   ELEMENT D15W6-1.10677 IS DISTORTING EXCESSIVELY.
   ELEMENT D15W6-1.10678 IS DISTORTING EXCESSIVELY.
   ELEMENT D15W6-1.10678 IS DISTORTING EXCESSIVELY.
   ELEMENT D15W6-1.10678 IS DISTORTING EXCESSIVELY.
   ELEMENT D15W6-1.10678 IS DISTORTING EXCESSIVELY.
   ELEMENT D15W6-1.10680 IS DISTORTING EXCESSIVELY.
   ELEMENT D15W6-1.10680 IS DISTORTING EXCESSIVELY.
   ELEMENT D15W6-1.11454 IS DISTORTING EXCESSIVELY.
   ELEMENT D15W6-1.11454 IS DISTORTING EXCESSIVELY.
   ELEMENT D15W6-1.11454 IS DISTORTING EXCESSIVELY.
   ELEMENT D15W6-1.11454 IS DISTORTING EXCESSIVELY.
   ELEMENT D15W6-1.11547 IS DISTORTING EXCESSIVELY.
   ELEMENT D15W6-1.11547 IS DISTORTING EXCESSIVELY.
   ELEMENT D15W6-1.11547 IS DISTORTING EXCESSIVELY.
   ELEMENT D15W6-1.11547 IS DISTORTING EXCESSIVELY.
   ELEMENT D15W6-1.11548 IS DISTORTING EXCESSIVELY.
   ELEMENT D15W6-1.11548 IS DISTORTING EXCESSIVELY.
   ELEMENT D15W6-1.11775 IS DISTORTING EXCESSIVELY.
   ELEMENT D15W6-1.11851 IS DISTORTING EXCESSIVELY.
   ELEMENT D15W6-1.11851 IS DISTORTING EXCESSIVELY.
   ELEMENT D15W6-1.11851 IS DISTORTING EXCESSIVELY.
   ELEMENT D15W6-1.12077 IS DISTORTING EXCESSIVELY.
   ELEMENT D15W6-1.12077 IS DISTORTING EXCESSIVELY.
   ELEMENT D15W6-1.12211 IS DISTORTING EXCESSIVELY.
   ELEMENT D15W6-1.12211 IS DISTORTING EXCESSIVELY.
   ELEMENT D15W6-1.12213 IS DISTORTING EXCESSIVELY.
   ELEMENT D15W6-1.12213 IS DISTORTING EXCESSIVELY.
   ELEMENT D15W6-1.12213 IS DISTORTING EXCESSIVELY.
   ELEMENT D15W6-1.12213 IS DISTORTING EXCESSIVELY.
   ELEMENT D15W6-1.12214 IS DISTORTING EXCESSIVELY.
   ELEMENT D15W6-1.12214 IS DISTORTING EXCESSIVELY.
   ELEMENT D15W6-1.12214 IS DISTORTING EXCESSIVELY.
   ELEMENT D15W6-1.12214 IS DISTORTING EXCESSIVELY.
   ELEMENT D15W6-1.12215 IS DISTORTING EXCESSIVELY.
   ELEMENT D15W6-1.12215 IS DISTORTING EXCESSIVELY.
   ELEMENT D15W6-1.12216 IS DISTORTING EXCESSIVELY.
   ELEMENT D15W6-1.12377 IS DISTORTING EXCESSIVELY.
   ELEMENT D15W6-1.12377 IS DISTORTING EXCESSIVELY.
   ELEMENT D15W6-1.12377 IS DISTORTING EXCESSIVELY.
   ELEMENT D15W6-1.12377 IS DISTORTING EXCESSIVELY.
   ELEMENT D15W6-1.12380 IS DISTORTING EXCESSIVELY.
   ELEMENT D15W6-1.12380 IS DISTORTING EXCESSIVELY.
   ELEMENT D15W6-1.12380 IS DISTORTING EXCESSIVELY.
   ELEMENT D15W6-1.12380 IS DISTORTING EXCESSIVELY.
   ELEMENT D15W6-1.12381 IS DISTORTING EXCESSIVELY.
   ELEMENT D15W6-1.12381 IS DISTORTING EXCESSIVELY.
   ELEMENT D15W6-1.12381 IS DISTORTING EXCESSIVELY.
   ELEMENT D15W6-1.12381 IS DISTORTING EXCESSIVELY.
   ELEMENT D15W6-1.12383 IS DISTORTING EXCESSIVELY.
   ELEMENT D15W6-1.12383 IS DISTORTING EXCESSIVELY.
   ELEMENT D15W6-1.12474 IS DISTORTING EXCESSIVELY.
   ELEMENT D15W6-1.12476 IS DISTORTING EXCESSIVELY.
   ELEMENT D15W6-1.12476 IS DISTORTING EXCESSIVELY.
   ELEMENT D15W6-1.12476 IS DISTORTING EXCESSIVELY.
   ELEMENT D15W6-1.12478 IS DISTORTING EXCESSIVELY.
   ELEMENT D15W6-1.12478 IS DISTORTING EXCESSIVELY.
   ELEMENT D15W6-1.12478 IS DISTORTING EXCESSIVELY.
   ELEMENT D15W6-1.12478 IS DISTORTING EXCESSIVELY.
   ELEMENT D15W6-1.12539 IS DISTORTING EXCESSIVELY.
   ELEMENT D15W6-1.12563 IS DISTORTING EXCESSIVELY.
   ELEMENT D15W6-1.12563 IS DISTORTING EXCESSIVELY.
   ELEMENT D15W6-1.12563 IS DISTORTING EXCESSIVELY.
   ELEMENT D15W6-1.12563 IS DISTORTING EXCESSIVELY.
   ELEMENT D15W6-1.12564 IS DISTORTING EXCESSIVELY.
   ELEMENT D15W6-1.12565 IS DISTORTING EXCESSIVELY.
   ELEMENT D15W6-1.12565 IS DISTORTING EXCESSIVELY.
   ELEMENT D15W6-1.12565 IS DISTORTING EXCESSIVELY.
   ELEMENT D15W6-1.12565 IS DISTORTING EXCESSIVELY.
   ELEMENT D15W6-1.12624 IS DISTORTING EXCESSIVELY.
   ELEMENT D15W6-1.12660 IS DISTORTING EXCESSIVELY.
   ELEMENT D15W6-1.12663 IS DISTORTING EXCESSIVELY.
   ELEMENT D15W6-1.12713 IS DISTORTING EXCESSIVELY.
   ELEMENT D15W6-1.12713 IS DISTORTING EXCESSIVELY.
   ELEMENT D15W6-1.12713 IS DISTORTING EXCESSIVELY.
   ELEMENT D15W6-1.12715 IS DISTORTING EXCESSIVELY.
   ELEMENT D15W6-1.12717 IS DISTORTING EXCESSIVELY.
   ELEMENT D15W6-1.12717 IS DISTORTING EXCESSIVELY.
   ELEMENT D15W6-1.12717 IS DISTORTING EXCESSIVELY.
   ELEMENT D15W6-1.12717 IS DISTORTING EXCESSIVELY.
   ELEMENT D15W6-1.12718 IS DISTORTING EXCESSIVELY.
   ELEMENT D15W6-1.12718 IS DISTORTING EXCESSIVELY.
   ELEMENT D15W6-1.12718 IS DISTORTING EXCESSIVELY.
   ELEMENT D15W6-1.12718 IS DISTORTING EXCESSIVELY.
   ELEMENT D15W6-1.12793 IS DISTORTING EXCESSIVELY.
   ELEMENT D15W6-1.12795 IS DISTORTING EXCESSIVELY.
   ELEMENT D15W6-1.12800 IS DISTORTING EXCESSIVELY.
   ELEMENT D15W6-1.12800 IS DISTORTING EXCESSIVELY.
   ELEMENT D15W6-1.12800 IS DISTORTING EXCESSIVELY.
   ELEMENT D15W6-1.12800 IS DISTORTING EXCESSIVELY.
   ELEMENT D15W6-1.12854 IS DISTORTING EXCESSIVELY.
   ELEMENT D15W6-1.12854 IS DISTORTING EXCESSIVELY.
   ELEMENT D15W6-1.12854 IS DISTORTING EXCESSIVELY.
   ELEMENT D15W6-1.12854 IS DISTORTING EXCESSIVELY.
   ELEMENT D15W6-1.12961 IS DISTORTING EXCESSIVELY.
   ELEMENT D15W6-1.12966 IS DISTORTING EXCESSIVELY.
   ELEMENT D15W6-1.13073 IS DISTORTING EXCESSIVELY.
   ELEMENT D15W6-1.13073 IS DISTORTING EXCESSIVELY.
   ELEMENT D15W6-1.13073 IS DISTORTING EXCESSIVELY.
   ELEMENT D15W6-1.13073 IS DISTORTING EXCESSIVELY.
   ELEMENT D15W6-1.13080 IS DISTORTING EXCESSIVELY.
   ELEMENT D15W6-1.13080 IS DISTORTING EXCESSIVELY.
   ELEMENT D15W6-1.13182 IS DISTORTING EXCESSIVELY.
   ELEMENT D15W6-1.13182 IS DISTORTING EXCESSIVELY.
   ELEMENT D15W6-1.13182 IS DISTORTING EXCESSIVELY.
   ELEMENT D15W6-1.13183 IS DISTORTING EXCESSIVELY.
   ELEMENT D15W6-1.13297 IS DISTORTING EXCESSIVELY.
   ELEMENT D15W6-1.13297 IS DISTORTING EXCESSIVELY.
   ELEMENT D15W6-1.13348 IS DISTORTING EXCESSIVELY.
   ELEMENT D15W6-1.13348 IS DISTORTING EXCESSIVELY.
   ELEMENT D15W6-1.13483 IS DISTORTING EXCESSIVELY.
   ELEMENT D15W6-1.13483 IS DISTORTING EXCESSIVELY.
   ELEMENT D15W6-1.13483 IS DISTORTING EXCESSIVELY.
   ELEMENT D15W6-1.13485 IS DISTORTING EXCESSIVELY.
   ELEMENT D15W6-1.13485 IS DISTORTING EXCESSIVELY.
   ELEMENT D15W6-1.13485 IS DISTORTING EXCESSIVELY.
   ELEMENT D15W6-1.13485 IS DISTORTING EXCESSIVELY.
   ELEMENT D15W6-1.13486 IS DISTORTING EXCESSIVELY.
   ELEMENT D15W6-1.13486 IS DISTORTING EXCESSIVELY.
   ELEMENT D15W6-1.13486 IS DISTORTING EXCESSIVELY.
   ELEMENT D15W6-1.13486 IS DISTORTING EXCESSIVELY.
   ELEMENT D15W6-1.13487 IS DISTORTING EXCESSIVELY.
   ELEMENT D15W6-1.13995 IS DISTORTING EXCESSIVELY.
   ELEMENT D15W6-1.13995 IS DISTORTING EXCESSIVELY.
   ELEMENT D15W6-1.13998 IS DISTORTING EXCESSIVELY.
   ELEMENT D15W6-1.13998 IS DISTORTING EXCESSIVELY.
   ELEMENT D15W6-1.14318 IS DISTORTING EXCESSIVELY.
   ELEMENT D15W6-1.14318 IS DISTORTING EXCESSIVELY.
   ELEMENT D15W6-1.14318 IS DISTORTING EXCESSIVELY.
   ELEMENT D15W6-1.14318 IS DISTORTING EXCESSIVELY.
   ELEMENT D15W6-1.14938 IS DISTORTING EXCESSIVELY.
   ELEMENT D15W6-1.14938 IS DISTORTING EXCESSIVELY.
   ELEMENT D15W6-1.15106 IS DISTORTING EXCESSIVELY.
   ELEMENT D15W6-1.15106 IS DISTORTING EXCESSIVELY.
   ELEMENT D15W6-1.15106 IS DISTORTING EXCESSIVELY.
   ELEMENT D15W6-1.15106 IS DISTORTING EXCESSIVELY.
   ELEMENT D15W6-1.15109 IS DISTORTING EXCESSIVELY.
   ELEMENT D15W6-1.15109 IS DISTORTING EXCESSIVELY.
   ELEMENT D15W6-1.15109 IS DISTORTING EXCESSIVELY.
   ELEMENT D15W6-1.15109 IS DISTORTING EXCESSIVELY.
   ELEMENT D15W6-1.15194 IS DISTORTING EXCESSIVELY.
   ELEMENT D15W6-1.15194 IS DISTORTING EXCESSIVELY.
   ELEMENT D15W6-1.15194 IS DISTORTING EXCESSIVELY.
   ELEMENT D15W6-1.15194 IS DISTORTING EXCESSIVELY.
   ELEMENT D15W6-1.15195 IS DISTORTING EXCESSIVELY.
   ELEMENT D15W6-1.15195 IS DISTORTING EXCESSIVELY.
   ELEMENT D15W6-1.15195 IS DISTORTING EXCESSIVELY.
   ELEMENT D15W6-1.15196 IS DISTORTING EXCESSIVELY.
   ELEMENT D15W6-1.15196 IS DISTORTING EXCESSIVELY.
   ELEMENT D15W6-1.15196 IS DISTORTING EXCESSIVELY.
   ELEMENT D15W6-1.15196 IS DISTORTING EXCESSIVELY.
   ELEMENT D15W6-1.15197 IS DISTORTING EXCESSIVELY.
   ELEMENT D15W6-1.15197 IS DISTORTING EXCESSIVELY.
   ELEMENT D15W6-1.15933 IS DISTORTING EXCESSIVELY.
   ELEMENT D15W6-1.15933 IS DISTORTING EXCESSIVELY.
   ELEMENT D15W6-1.15933 IS DISTORTING EXCESSIVELY.
   ELEMENT D15W6-1.16360 IS DISTORTING EXCESSIVELY.
   ELEMENT D15W6-1.16360 IS DISTORTING EXCESSIVELY.
   ELEMENT D15W6-1.16707 IS DISTORTING EXCESSIVELY.
   ELEMENT D15W6-1.16707 IS DISTORTING EXCESSIVELY.
   ELEMENT D15W6-1.16707 IS DISTORTING EXCESSIVELY.
   ELEMENT D15W6-1.16707 IS DISTORTING EXCESSIVELY.
   ELEMENT D15W6-1.17077 IS DISTORTING EXCESSIVELY.
   ELEMENT D15W6-1.17077 IS DISTORTING EXCESSIVELY.
   ELEMENT D15W6-1.17077 IS DISTORTING EXCESSIVELY.
   ELEMENT D15W6-1.17077 IS DISTORTING EXCESSIVELY.
   ELEMENT D15W6-1.17078 IS DISTORTING EXCESSIVELY.
   ELEMENT D15W6-1.17078 IS DISTORTING EXCESSIVELY.
   ELEMENT D15W6-1.17078 IS DISTORTING EXCESSIVELY.
   ELEMENT D15W6-1.17078 IS DISTORTING EXCESSIVELY.
   ELEMENT D15W6-1.17080 IS DISTORTING EXCESSIVELY.
   ELEMENT D15W6-1.17080 IS DISTORTING EXCESSIVELY.
   ELEMENT D15W6-1.17080 IS DISTORTING EXCESSIVELY.
   ELEMENT D15W6-1.17080 IS DISTORTING EXCESSIVELY.
   ELEMENT D15W6-1.17546 IS DISTORTING EXCESSIVELY.
   ELEMENT D15W6-1.17546 IS DISTORTING EXCESSIVELY.
   ELEMENT D15W6-1.17546 IS DISTORTING EXCESSIVELY.
   ELEMENT D15W6-1.17546 IS DISTORTING EXCESSIVELY.
   ELEMENT D15W6-1.17547 IS DISTORTING EXCESSIVELY.
   ELEMENT D15W6-1.17547 IS DISTORTING EXCESSIVELY.
   ELEMENT D15W6-1.17547 IS DISTORTING EXCESSIVELY.
   ELEMENT D15W6-1.17549 IS DISTORTING EXCESSIVELY.
   ELEMENT D15W6-1.17549 IS DISTORTING EXCESSIVELY.
   ELEMENT D15W6-1.17550 IS DISTORTING EXCESSIVELY.
   ELEMENT D15W6-1.17550 IS DISTORTING EXCESSIVELY.
   ELEMENT D15W6-1.17551 IS DISTORTING EXCESSIVELY.
   ELEMENT D15W6-1.17551 IS DISTORTING EXCESSIVELY.
   ELEMENT D15W6-1.17551 IS DISTORTING EXCESSIVELY.
   ELEMENT D15W6-1.18044 IS DISTORTING EXCESSIVELY.
   ELEMENT D15W6-1.18044 IS DISTORTING EXCESSIVELY.
   ELEMENT D15W6-1.18044 IS DISTORTING EXCESSIVELY.
   ELEMENT D15W6-1.18044 IS DISTORTING EXCESSIVELY.
   ELEMENT D15W6-1.18046 IS DISTORTING EXCESSIVELY.
   ELEMENT D15W6-1.18046 IS DISTORTING EXCESSIVELY.
   ELEMENT D15W6-1.18046 IS DISTORTING EXCESSIVELY.
   ELEMENT D15W6-1.18047 IS DISTORTING EXCESSIVELY.
   ELEMENT D15W6-1.18435 IS DISTORTING EXCESSIVELY.
   ELEMENT D15W6-1.18435 IS DISTORTING EXCESSIVELY.
   ELEMENT D15W6-1.18440 IS DISTORTING EXCESSIVELY.
   ELEMENT D15W6-1.18510 IS DISTORTING EXCESSIVELY.
   ELEMENT D15W6-1.18628 IS DISTORTING EXCESSIVELY.
   ELEMENT D15W6-1.18659 IS DISTORTING EXCESSIVELY.
   ELEMENT D15W6-1.18659 IS DISTORTING EXCESSIVELY.
   ELEMENT D15W6-1.18659 IS DISTORTING EXCESSIVELY.
   ELEMENT D15W6-1.19435 IS DISTORTING EXCESSIVELY.
   ELEMENT D15W6-1.19435 IS DISTORTING EXCESSIVELY.
   ELEMENT D15W6-1.19478 IS DISTORTING EXCESSIVELY.
   ELEMENT D15W6-1.19478 IS DISTORTING EXCESSIVELY.
   ELEMENT D15W6-1.19478 IS DISTORTING EXCESSIVELY.
   ELEMENT D15W6-1.19479 IS DISTORTING EXCESSIVELY.
   ELEMENT D15W6-1.19479 IS DISTORTING EXCESSIVELY.
   ELEMENT D15W6-1.19793 IS DISTORTING EXCESSIVELY.
   ELEMENT D15W6-1.19812 IS DISTORTING EXCESSIVELY.
   ELEMENT D15W6-1.19812 IS DISTORTING EXCESSIVELY.
   ELEMENT D15W6-1.19812 IS DISTORTING EXCESSIVELY.
   ELEMENT D15W6-1.19812 IS DISTORTING EXCESSIVELY.
   ELEMENT D15W6-1.20169 IS DISTORTING EXCESSIVELY.
   ELEMENT D15W6-1.20169 IS DISTORTING EXCESSIVELY.
   ELEMENT D15W6-1.20169 IS DISTORTING EXCESSIVELY.
   ELEMENT D15W6-1.20172 IS DISTORTING EXCESSIVELY.
   ELEMENT D15W6-1.20172 IS DISTORTING EXCESSIVELY.
   ELEMENT D15W6-1.20172 IS DISTORTING EXCESSIVELY.
   ELEMENT D15W6-1.20199 IS DISTORTING EXCESSIVELY.
   ELEMENT D15W6-1.20199 IS DISTORTING EXCESSIVELY.
   ELEMENT D15W6-1.20199 IS DISTORTING EXCESSIVELY.
   ELEMENT D15W6-1.20501 IS DISTORTING EXCESSIVELY.
   ELEMENT D15W6-1.20501 IS DISTORTING EXCESSIVELY.
   ELEMENT D15W6-1.20501 IS DISTORTING EXCESSIVELY.
   ELEMENT D15W6-1.20738 IS DISTORTING EXCESSIVELY.
   ELEMENT D15W6-1.20738 IS DISTORTING EXCESSIVELY.
   ELEMENT D15W6-1.20828 IS DISTORTING EXCESSIVELY.
   ELEMENT D15W6-1.20828 IS DISTORTING EXCESSIVELY.
   ELEMENT D15W6-1.20828 IS DISTORTING EXCESSIVELY.
   ELEMENT D15W6-1.20828 IS DISTORTING EXCESSIVELY.
   ELEMENT D15W6-1.21180 IS DISTORTING EXCESSIVELY.
   ELEMENT D15W6-1.21180 IS DISTORTING EXCESSIVELY.
   ELEMENT D15W6-1.21183 IS DISTORTING EXCESSIVELY.
   ELEMENT D15W6-1.21367 IS DISTORTING EXCESSIVELY.
   ELEMENT D15W6-1.21367 IS DISTORTING EXCESSIVELY.
   ELEMENT D15W6-1.21415 IS DISTORTING EXCESSIVELY.
   ELEMENT D15W6-1.21415 IS DISTORTING EXCESSIVELY.
   ELEMENT D15W6-1.21445 IS DISTORTING EXCESSIVELY.
   ELEMENT D15W6-1.21445 IS DISTORTING EXCESSIVELY.
   ELEMENT D15W6-1.21445 IS DISTORTING EXCESSIVELY.
   ELEMENT D15W6-1.21445 IS DISTORTING EXCESSIVELY.
   ELEMENT D15W6-1.21446 IS DISTORTING EXCESSIVELY.
   ELEMENT D15W6-1.21446 IS DISTORTING EXCESSIVELY.
   ELEMENT D15W6-1.21446 IS DISTORTING EXCESSIVELY.
   ELEMENT D15W6-1.21446 IS DISTORTING EXCESSIVELY.
   ELEMENT D15W6-1.21560 IS DISTORTING EXCESSIVELY.
   ELEMENT D15W6-1.21560 IS DISTORTING EXCESSIVELY.
   ELEMENT D15W6-1.21560 IS DISTORTING EXCESSIVELY.
   ELEMENT D15W6-1.21560 IS DISTORTING EXCESSIVELY.
   ELEMENT D15W6-1.21702 IS DISTORTING EXCESSIVELY.
   ELEMENT D15W6-1.21702 IS DISTORTING EXCESSIVELY.
   ELEMENT D15W6-1.21702 IS DISTORTING EXCESSIVELY.
   ELEMENT D15W6-1.21702 IS DISTORTING EXCESSIVELY.
   ELEMENT D15W6-1.21713 IS DISTORTING EXCESSIVELY.
   ELEMENT D15W6-1.21713 IS DISTORTING EXCESSIVELY.
   ELEMENT D15W6-1.21713 IS DISTORTING EXCESSIVELY.
   ELEMENT D15W6-1.21795 IS DISTORTING EXCESSIVELY.
   ELEMENT D15W6-1.21795 IS DISTORTING EXCESSIVELY.
   ELEMENT D15W6-1.21795 IS DISTORTING EXCESSIVELY.
   ELEMENT D15W6-1.21795 IS DISTORTING EXCESSIVELY.
   ELEMENT D15W6-1.21796 IS DISTORTING EXCESSIVELY.
   ELEMENT D15W6-1.21796 IS DISTORTING EXCESSIVELY.
   ELEMENT D15W6-1.21796 IS DISTORTING EXCESSIVELY.
   ELEMENT D15W6-1.21796 IS DISTORTING EXCESSIVELY.
   ELEMENT D15W6-1.21797 IS DISTORTING EXCESSIVELY.
   ELEMENT D15W6-1.21797 IS DISTORTING EXCESSIVELY.
   ELEMENT D15W6-1.21797 IS DISTORTING EXCESSIVELY.
   ELEMENT D15W6-1.21797 IS DISTORTING EXCESSIVELY.
   ELEMENT D15W6-1.21799 IS DISTORTING EXCESSIVELY.
   ELEMENT D15W6-1.21799 IS DISTORTING EXCESSIVELY.
   ELEMENT D15W6-1.21799 IS DISTORTING EXCESSIVELY.
   ELEMENT D15W6-1.21913 IS DISTORTING EXCESSIVELY.
   ELEMENT D15W6-1.21913 IS DISTORTING EXCESSIVELY.
   ELEMENT D15W6-1.21913 IS DISTORTING EXCESSIVELY.
   ELEMENT D15W6-1.21913 IS DISTORTING EXCESSIVELY.
   ELEMENT D15W6-1.21916 IS DISTORTING EXCESSIVELY.
   ELEMENT D15W6-1.21916 IS DISTORTING EXCESSIVELY.
   ELEMENT D15W6-1.21916 IS DISTORTING EXCESSIVELY.
   ELEMENT D15W6-1.21916 IS DISTORTING EXCESSIVELY.
   ELEMENT D15W6-1.21917 IS DISTORTING EXCESSIVELY.
   ELEMENT D15W6-1.21917 IS DISTORTING EXCESSIVELY.
   ELEMENT D15W6-1.21917 IS DISTORTING EXCESSIVELY.
   ELEMENT D15W6-1.21917 IS DISTORTING EXCESSIVELY.
   ELEMENT D15W6-1.22049 IS DISTORTING EXCESSIVELY.
   ELEMENT D15W6-1.22049 IS DISTORTING EXCESSIVELY.
   ELEMENT D15W6-1.22049 IS DISTORTING EXCESSIVELY.
   ELEMENT D15W6-1.22049 IS DISTORTING EXCESSIVELY.
   ELEMENT D15W6-1.22055 IS DISTORTING EXCESSIVELY.
   ELEMENT D15W6-1.22055 IS DISTORTING EXCESSIVELY.
   ELEMENT D15W6-1.22055 IS DISTORTING EXCESSIVELY.
   ELEMENT D15W6-1.22055 IS DISTORTING EXCESSIVELY.
   ELEMENT D15W6-1.22056 IS DISTORTING EXCESSIVELY.
   ELEMENT D15W6-1.22141 IS DISTORTING EXCESSIVELY.
   ELEMENT D15W6-1.22141 IS DISTORTING EXCESSIVELY.
   ELEMENT D15W6-1.22141 IS DISTORTING EXCESSIVELY.
   ELEMENT D15W6-1.22141 IS DISTORTING EXCESSIVELY.
   ELEMENT D15W6-1.22143 IS DISTORTING EXCESSIVELY.
   ELEMENT D15W6-1.22143 IS DISTORTING EXCESSIVELY.
   ELEMENT D15W6-1.22143 IS DISTORTING EXCESSIVELY.
   ELEMENT D15W6-1.22143 IS DISTORTING EXCESSIVELY.
   ELEMENT D15W6-1.22144 IS DISTORTING EXCESSIVELY.
   ELEMENT D15W6-1.22144 IS DISTORTING EXCESSIVELY.
   ELEMENT D15W6-1.22144 IS DISTORTING EXCESSIVELY.
   ELEMENT D15W6-1.22241 IS DISTORTING EXCESSIVELY.
   ELEMENT D15W6-1.22241 IS DISTORTING EXCESSIVELY.
   ELEMENT D15W6-1.22242 IS DISTORTING EXCESSIVELY.
   ELEMENT D15W6-1.22242 IS DISTORTING EXCESSIVELY.
   ELEMENT D15W6-1.22244 IS DISTORTING EXCESSIVELY.
   ELEMENT D15W6-1.22244 IS DISTORTING EXCESSIVELY.
   ELEMENT D15W6-1.22244 IS DISTORTING EXCESSIVELY.
   ELEMENT D15W6-1.22244 IS DISTORTING EXCESSIVELY.
   ELEMENT D15W6-1.22245 IS DISTORTING EXCESSIVELY.
   ELEMENT D15W6-1.22245 IS DISTORTING EXCESSIVELY.
   ELEMENT D15W6-1.22245 IS DISTORTING EXCESSIVELY.
   ELEMENT D15W6-1.22245 IS DISTORTING EXCESSIVELY.
   ELEMENT D15W6-1.22246 IS DISTORTING EXCESSIVELY.
   ELEMENT D15W6-1.22248 IS DISTORTING EXCESSIVELY.
   ELEMENT D15W6-1.22248 IS DISTORTING EXCESSIVELY.
   ELEMENT D15W6-1.22248 IS DISTORTING EXCESSIVELY.
   ELEMENT D15W6-1.22248 IS DISTORTING EXCESSIVELY.
   ELEMENT D15W6-1.22362 IS DISTORTING EXCESSIVELY.
   ELEMENT D15W6-1.22362 IS DISTORTING EXCESSIVELY.
   ELEMENT D15W6-1.22368 IS DISTORTING EXCESSIVELY.
   ELEMENT D15W6-1.22386 IS DISTORTING EXCESSIVELY.
   ELEMENT D15W6-1.22388 IS DISTORTING EXCESSIVELY.
   ELEMENT D15W6-1.22388 IS DISTORTING EXCESSIVELY.
   ELEMENT D15W6-1.22389 IS DISTORTING EXCESSIVELY.
   ELEMENT D15W6-1.22389 IS DISTORTING EXCESSIVELY.
   ELEMENT D15W6-1.22389 IS DISTORTING EXCESSIVELY.
   ELEMENT D15W6-1.22389 IS DISTORTING EXCESSIVELY.
   ELEMENT D15W6-1.22391 IS DISTORTING EXCESSIVELY.
   ELEMENT D15W6-1.22391 IS DISTORTING EXCESSIVELY.
   ELEMENT D15W6-1.22391 IS DISTORTING EXCESSIVELY.
   ELEMENT D15W6-1.22391 IS DISTORTING EXCESSIVELY.
   ELEMENT D15W6-1.22392 IS DISTORTING EXCESSIVELY.
   ELEMENT D15W6-1.22392 IS DISTORTING EXCESSIVELY.
   ELEMENT D15W6-1.22392 IS DISTORTING EXCESSIVELY.
   ELEMENT D15W6-1.22392 IS DISTORTING EXCESSIVELY.
   ELEMENT D15W6-1.22523 IS DISTORTING EXCESSIVELY.
   ELEMENT D15W6-1.22523 IS DISTORTING EXCESSIVELY.
   ELEMENT D15W6-1.22523 IS DISTORTING EXCESSIVELY.
   ELEMENT D15W6-1.22523 IS DISTORTING EXCESSIVELY.
   ELEMENT D15W6-1.22524 IS DISTORTING EXCESSIVELY.
   ELEMENT D15W6-1.22524 IS DISTORTING EXCESSIVELY.
   ELEMENT D15W6-1.22524 IS DISTORTING EXCESSIVELY.
   ELEMENT D15W6-1.22524 IS DISTORTING EXCESSIVELY.
   ELEMENT D15W6-1.22635 IS DISTORTING EXCESSIVELY.
   ELEMENT D15W6-1.22635 IS DISTORTING EXCESSIVELY.
   ELEMENT D15W6-1.22635 IS DISTORTING EXCESSIVELY.
   ELEMENT D15W6-1.22635 IS DISTORTING EXCESSIVELY.
   ELEMENT D15W6-1.22638 IS DISTORTING EXCESSIVELY.
   ELEMENT D15W6-1.22638 IS DISTORTING EXCESSIVELY.
   ELEMENT D15W6-1.22638 IS DISTORTING EXCESSIVELY.
   ELEMENT D15W6-1.22638 IS DISTORTING EXCESSIVELY.
   ELEMENT D15W6-1.22762 IS DISTORTING EXCESSIVELY.
   ELEMENT D15W6-1.22762 IS DISTORTING EXCESSIVELY.
   ELEMENT D15W6-1.22762 IS DISTORTING EXCESSIVELY.
   ELEMENT D15W6-1.22762 IS DISTORTING EXCESSIVELY.
   ELEMENT D15W6-1.22768 IS DISTORTING EXCESSIVELY.
   ELEMENT D15W6-1.22768 IS DISTORTING EXCESSIVELY.
   ELEMENT D15W6-1.22768 IS DISTORTING EXCESSIVELY.
   ELEMENT D15W6-1.22768 IS DISTORTING EXCESSIVELY.
   ELEMENT D15W6-1.22873 IS DISTORTING EXCESSIVELY.
   ELEMENT D15W6-1.22873 IS DISTORTING EXCESSIVELY.
   ELEMENT D15W6-1.22873 IS DISTORTING EXCESSIVELY.
   ELEMENT D15W6-1.22873 IS DISTORTING EXCESSIVELY.
   ELEMENT D15W6-1.22876 IS DISTORTING EXCESSIVELY.
   ELEMENT D15W6-1.22876 IS DISTORTING EXCESSIVELY.
   ELEMENT D15W6-1.22876 IS DISTORTING EXCESSIVELY.
   ELEMENT D15W6-1.22876 IS DISTORTING EXCESSIVELY.
   ELEMENT D15W6-1.22878 IS DISTORTING EXCESSIVELY.
   ELEMENT D15W6-1.22878 IS DISTORTING EXCESSIVELY.
   ELEMENT D15W6-1.22878 IS DISTORTING EXCESSIVELY.
   ELEMENT D15W6-1.23008 IS DISTORTING EXCESSIVELY.
   ELEMENT D15W6-1.23008 IS DISTORTING EXCESSIVELY.
   ELEMENT D15W6-1.23008 IS DISTORTING EXCESSIVELY.
   ELEMENT D15W6-1.23008 IS DISTORTING EXCESSIVELY.
   ELEMENT D15W6-1.23115 IS DISTORTING EXCESSIVELY.
   ELEMENT D15W6-1.23115 IS DISTORTING EXCESSIVELY.
   ELEMENT D15W6-1.23115 IS DISTORTING EXCESSIVELY.
   ELEMENT D15W6-1.23115 IS DISTORTING EXCESSIVELY.
   ELEMENT D15W6-1.23119 IS DISTORTING EXCESSIVELY.
   ELEMENT D15W6-1.23119 IS DISTORTING EXCESSIVELY.
   ELEMENT D15W6-1.23119 IS DISTORTING EXCESSIVELY.
   ELEMENT D15W6-1.23119 IS DISTORTING EXCESSIVELY.
   ELEMENT D15W6-1.23315 IS DISTORTING EXCESSIVELY.
   ELEMENT D15W6-1.23315 IS DISTORTING EXCESSIVELY.
   ELEMENT D15W6-1.23315 IS DISTORTING EXCESSIVELY.
   ELEMENT D15W6-1.23315 IS DISTORTING EXCESSIVELY.
   ELEMENT D15W6-1.23317 IS DISTORTING EXCESSIVELY.
   ELEMENT D15W6-1.23317 IS DISTORTING EXCESSIVELY.
   ELEMENT D15W6-1.23317 IS DISTORTING EXCESSIVELY.
   ELEMENT D15W6-1.23317 IS DISTORTING EXCESSIVELY.
   ELEMENT D15W6-1.23319 IS DISTORTING EXCESSIVELY.
   ELEMENT D15W6-1.23319 IS DISTORTING EXCESSIVELY.
   ELEMENT D15W6-1.23319 IS DISTORTING EXCESSIVELY.
   ELEMENT D15W6-1.23319 IS DISTORTING EXCESSIVELY.
   ELEMENT D15W6-1.23320 IS DISTORTING EXCESSIVELY.
   ELEMENT D15W6-1.23320 IS DISTORTING EXCESSIVELY.
   ELEMENT D15W6-1.23320 IS DISTORTING EXCESSIVELY.
   ELEMENT D15W6-1.23320 IS DISTORTING EXCESSIVELY.
   ELEMENT D15W6-1.24292 IS DISTORTING EXCESSIVELY.
   ELEMENT D15W6-1.24292 IS DISTORTING EXCESSIVELY.
   ELEMENT D15W6-1.24338 IS DISTORTING EXCESSIVELY.
   ELEMENT D15W6-1.24338 IS DISTORTING EXCESSIVELY.
[...]
 VOLUMETRIC                          0                1.338E-06              30407
   INSTANCE: D15W6-1                                                                         
          TIME INCREMENT MAY NOW INCREASE TO    3.754E-02

 ITERATION SUMMARY FOR THE INCREMENT:   2 TOTAL ITERATIONS, OF WHICH
   0 ARE SEVERE DISCONTINUITY ITERATIONS AND  2 ARE EQUILIBRIUM ITERATIONS.

 TIME INCREMENT COMPLETED  2.503E-02,  FRACTION OF STEP COMPLETED  0.817    
 STEP TIME COMPLETED       0.817    ,  TOTAL TIME COMPLETED        0.817    


  INCREMENT    11 STARTS. ATTEMPT NUMBER  1, TIME INCREMENT  3.754E-02
 
	SYMMETRIC DIRECT SPARSE SOLVER RUNNING ON
 	1 HOST:        1 MPI RANK  x 8 THREADS
 	NUMBER OF EQUATIONS:     182689
 	NUMBER OF RHS:           1
 	NUMBER OF FLOPS:         1.064e+11

     CHECK POINT   START OF SOLVER    

     CHECK POINT  END OF SOLVER       

       ELAPSED USER TIME (SEC)      =   5.9000    
       ELAPSED SYSTEM TIME (SEC)    =   0.0000    
       ELAPSED TOTAL CPU TIME (SEC) =   5.9000    
       ELAPSED WALLCLOCK TIME (SEC) =          1

               CONVERGENCE CHECKS FOR EQUILIBRIUM ITERATION     1


 AVERAGE FORCE                       117.       TIME AVG. FORCE        64.8    
 LARGEST RESIDUAL FORCE              59.6       AT NODE      36787   DOF  2
   INSTANCE: D15W6-1                                                                         
 LARGEST INCREMENT OF DISP.          135.       AT NODE        840   DOF  2
   INSTANCE: D15W6-1                                                                         
 LARGEST CORRECTION TO DISP.        -18.8       AT NODE       2170   DOF  2
   INSTANCE: D15W6-1                                                                         
          FORCE     EQUILIBRIUM NOT ACHIEVED WITHIN TOLERANCE.

 COMPATIBILITY ERRORS:
    TYPE                NUMBER EXCEEDING TOLERANCE  MAXIMUM ERROR        IN ELEMENT
 VOLUMETRIC                      22052               -3.938E-04              11656
   INSTANCE: D15W6-1                                                                         
 
	SYMMETRIC DIRECT SPARSE SOLVER RUNNING ON
 	1 HOST:        1 MPI RANK  x 8 THREADS
 	NUMBER OF EQUATIONS:     182689
 	NUMBER OF RHS:           1
 	NUMBER OF FLOPS:         1.064e+11

     CHECK POINT   START OF SOLVER    

     CHECK POINT  END OF SOLVER       

       ELAPSED USER TIME (SEC)      =   8.3000    
       ELAPSED SYSTEM TIME (SEC)    =  0.10000    
       ELAPSED TOTAL CPU TIME (SEC) =   8.4000    
       ELAPSED WALLCLOCK TIME (SEC) =          2

               CONVERGENCE CHECKS FOR EQUILIBRIUM ITERATION     2


 AVERAGE FORCE                       117.       TIME AVG. FORCE        64.8    
 LARGEST RESIDUAL FORCE             0.748       AT NODE      36787   DOF  2
   INSTANCE: D15W6-1                                                                         
 LARGEST INCREMENT OF DISP.          137.       AT NODE        840   DOF  2
   INSTANCE: D15W6-1                                                                         
 LARGEST CORRECTION TO DISP.         4.03       AT NODE      45904   DOF  3
   INSTANCE: D15W6-1                                                                         
          FORCE     EQUILIBRIUM NOT ACHIEVED WITHIN TOLERANCE.

 COMPATIBILITY ERRORS:
    TYPE                NUMBER EXCEEDING TOLERANCE  MAXIMUM ERROR        IN ELEMENT
 VOLUMETRIC                         70                1.674E-05               6756
   INSTANCE: D15W6-1                                                                         
 
	SYMMETRIC DIRECT SPARSE SOLVER RUNNING ON
 	1 HOST:        1 MPI RANK  x 8 THREADS
 	NUMBER OF EQUATIONS:     182689
 	NUMBER OF RHS:           1
 	NUMBER OF FLOPS:         1.064e+11

     CHECK POINT   START OF SOLVER    

     CHECK POINT  END OF SOLVER       

       ELAPSED USER TIME (SEC)      =   5.1000    
       ELAPSED SYSTEM TIME (SEC)    =   0.0000    
       ELAPSED TOTAL CPU TIME (SEC) =   5.1000    
       ELAPSED WALLCLOCK TIME (SEC) =          1

               CONVERGENCE CHECKS FOR EQUILIBRIUM ITERATION     3


 AVERAGE FORCE                       120.       TIME AVG. FORCE        65.1    
 LARGEST RESIDUAL FORCE             3.160E-04   AT NODE      41911   DOF  2
   INSTANCE: D15W6-1                                                                         
 LARGEST INCREMENT OF DISP.          137.       AT NODE        840   DOF  2
   INSTANCE: D15W6-1                                                                         
 LARGEST CORRECTION TO DISP.       -7.218E-02   AT NODE       2175   DOF  2
   INSTANCE: D15W6-1                                                                         
          THE FORCE     EQUILIBRIUM EQUATIONS HAVE CONVERGED

 COMPATIBILITY ERRORS:
    TYPE                NUMBER EXCEEDING TOLERANCE  MAXIMUM ERROR        IN ELEMENT
 VOLUMETRIC                          0               -3.208E-09                306
   INSTANCE: D15W6-1                                                                         
          TIME INCREMENT MAY NOW INCREASE TO    5.631E-02

 ITERATION SUMMARY FOR THE INCREMENT:   3 TOTAL ITERATIONS, OF WHICH
   0 ARE SEVERE DISCONTINUITY ITERATIONS AND  3 ARE EQUILIBRIUM ITERATIONS.

 TIME INCREMENT COMPLETED  3.754E-02,  FRACTION OF STEP COMPLETED  0.855    
 STEP TIME COMPLETED       0.855    ,  TOTAL TIME COMPLETED        0.855    


  INCREMENT    12 STARTS. ATTEMPT NUMBER  1, TIME INCREMENT  5.631E-02
 
	SYMMETRIC DIRECT SPARSE SOLVER RUNNING ON
 	1 HOST:        1 MPI RANK  x 8 THREADS
 	NUMBER OF EQUATIONS:     182689
 	NUMBER OF RHS:           1
 	NUMBER OF FLOPS:         1.064e+11

     CHECK POINT   START OF SOLVER    

     CHECK POINT  END OF SOLVER       

       ELAPSED USER TIME (SEC)      =   8.0000    
       ELAPSED SYSTEM TIME (SEC)    =   0.0000    
       ELAPSED TOTAL CPU TIME (SEC) =   8.0000    
       ELAPSED WALLCLOCK TIME (SEC) =          2
 

 ***WARNING: THE SYSTEM MATRIX HAS 2 NEGATIVE EIGENVALUES.
             EXPLANATIONS ARE SUGGESTED AFTER THE FIRST OCCURRENCE OF THIS MESSAGE.

               CONVERGENCE CHECKS FOR EQUILIBRIUM ITERATION     1


 AVERAGE FORCE                       138.       TIME AVG. FORCE        71.1    
 LARGEST RESIDUAL FORCE              216.       AT NODE      36601   DOF  2
   INSTANCE: D15W6-1                                                                         
 LARGEST INCREMENT OF DISP.         -151.       AT NODE      10265   DOF  3
   INSTANCE: D15W6-1                                                                         
 LARGEST CORRECTION TO DISP.        -73.5       AT NODE       2175   DOF  2
   INSTANCE: D15W6-1                                                                         
          FORCE     EQUILIBRIUM NOT ACHIEVED WITHIN TOLERANCE.

 COMPATIBILITY ERRORS:
    TYPE                NUMBER EXCEEDING TOLERANCE  MAXIMUM ERROR        IN ELEMENT
 VOLUMETRIC                      26533               -3.913E-03              28538
   INSTANCE: D15W6-1                                                                         
 
	SYMMETRIC DIRECT SPARSE SOLVER RUNNING ON
 	1 HOST:        1 MPI RANK  x 8 THREADS
 	NUMBER OF EQUATIONS:     182689
 	NUMBER OF RHS:           1
 	NUMBER OF FLOPS:         1.064e+11

     CHECK POINT   START OF SOLVER    

     CHECK POINT  END OF SOLVER       

       ELAPSED USER TIME (SEC)      =   6.6000    
       ELAPSED SYSTEM TIME (SEC)    =  0.10000    
       ELAPSED TOTAL CPU TIME (SEC) =   6.7000    
       ELAPSED WALLCLOCK TIME (SEC) =          2

               CONVERGENCE CHECKS FOR EQUILIBRIUM ITERATION     2


 AVERAGE FORCE                       136.       TIME AVG. FORCE        71.0    
 LARGEST RESIDUAL FORCE             -73.0       AT NODE      50316   DOF  3
   INSTANCE: D15W6-1                                                                         
 LARGEST INCREMENT OF DISP.          175.       AT NODE        840   DOF  2
   INSTANCE: D15W6-1                                                                         
 LARGEST CORRECTION TO DISP.         45.4       AT NODE      45401   DOF  2
   INSTANCE: D15W6-1                                                                         
          FORCE     EQUILIBRIUM NOT ACHIEVED WITHIN TOLERANCE.

 COMPATIBILITY ERRORS:
    TYPE                NUMBER EXCEEDING TOLERANCE  MAXIMUM ERROR        IN ELEMENT
 VOLUMETRIC                      24376               -1.665E-03              28538
   INSTANCE: D15W6-1                                                                         
 
	SYMMETRIC DIRECT SPARSE SOLVER RUNNING ON
 	1 HOST:        1 MPI RANK  x 8 THREADS
 	NUMBER OF EQUATIONS:     182689
 	NUMBER OF RHS:           1
 	NUMBER OF FLOPS:         1.064e+11

     CHECK POINT   START OF SOLVER    

     CHECK POINT  END OF SOLVER       

       ELAPSED USER TIME (SEC)      =   5.0000    
       ELAPSED SYSTEM TIME (SEC)    =   0.0000    
       ELAPSED TOTAL CPU TIME (SEC) =   5.0000    
       ELAPSED WALLCLOCK TIME (SEC) =          2

               CONVERGENCE CHECKS FOR EQUILIBRIUM ITERATION     3


 AVERAGE FORCE                       139.       TIME AVG. FORCE        71.2    
 LARGEST RESIDUAL FORCE             0.218       AT NODE      50316   DOF  3
   INSTANCE: D15W6-1                                                                         
 LARGEST INCREMENT OF DISP.          174.       AT NODE        840   DOF  2
   INSTANCE: D15W6-1                                                                         
 LARGEST CORRECTION TO DISP.       -0.810       AT NODE      12920   DOF  2
   INSTANCE: D15W6-1                                                                         
          THE FORCE     EQUILIBRIUM EQUATIONS HAVE CONVERGED

 COMPATIBILITY ERRORS:
    TYPE                NUMBER EXCEEDING TOLERANCE  MAXIMUM ERROR        IN ELEMENT
 VOLUMETRIC                          0               -6.317E-07              17826
   INSTANCE: D15W6-1                                                                         
          TIME INCREMENT MAY NOW INCREASE TO    8.447E-02

 ITERATION SUMMARY FOR THE INCREMENT:   3 TOTAL ITERATIONS, OF WHICH
   0 ARE SEVERE DISCONTINUITY ITERATIONS AND  3 ARE EQUILIBRIUM ITERATIONS.

 TIME INCREMENT COMPLETED  5.631E-02,  FRACTION OF STEP COMPLETED  0.911    
 STEP TIME COMPLETED       0.911    ,  TOTAL TIME COMPLETED        0.911    


  INCREMENT    13 STARTS. ATTEMPT NUMBER  1, TIME INCREMENT  8.447E-02
 
	SYMMETRIC DIRECT SPARSE SOLVER RUNNING ON
 	1 HOST:        1 MPI RANK  x 8 THREADS
 	NUMBER OF EQUATIONS:     182689
 	NUMBER OF RHS:           1
 	NUMBER OF FLOPS:         1.064e+11

     CHECK POINT   START OF SOLVER    

     CHECK POINT  END OF SOLVER       

       ELAPSED USER TIME (SEC)      =   5.8000    
       ELAPSED SYSTEM TIME (SEC)    =   0.0000    
       ELAPSED TOTAL CPU TIME (SEC) =   5.8000    
       ELAPSED WALLCLOCK TIME (SEC) =          2
 

 ***WARNING: THE SYSTEM MATRIX HAS 4 NEGATIVE EIGENVALUES.
             EXPLANATIONS ARE SUGGESTED AFTER THE FIRST OCCURRENCE OF THIS MESSAGE.

               CONVERGENCE CHECKS FOR EQUILIBRIUM ITERATION     1


 AVERAGE FORCE                       169.       TIME AVG. FORCE        78.7    
 LARGEST RESIDUAL FORCE             -409.       AT NODE      36836   DOF  1
   INSTANCE: D15W6-1                                                                         
 LARGEST INCREMENT OF DISP.          289.       AT NODE      16581   DOF  2
   INSTANCE: D15W6-1                                                                         
 LARGEST CORRECTION TO DISP.         49.4       AT NODE      50047   DOF  3
   INSTANCE: D15W6-1                                                                         
          FORCE     EQUILIBRIUM NOT ACHIEVED WITHIN TOLERANCE.

 COMPATIBILITY ERRORS:
    TYPE                NUMBER EXCEEDING TOLERANCE  MAXIMUM ERROR        IN ELEMENT
 VOLUMETRIC                      25378               -1.066E-02               9631
   INSTANCE: D15W6-1                                                                         
 
	SYMMETRIC DIRECT SPARSE SOLVER RUNNING ON
 	1 HOST:        1 MPI RANK  x 8 THREADS
 	NUMBER OF EQUATIONS:     182689
 	NUMBER OF RHS:           1
 	NUMBER OF FLOPS:         1.064e+11

     CHECK POINT   START OF SOLVER    

     CHECK POINT  END OF SOLVER       

       ELAPSED USER TIME (SEC)      =   6.0000    
       ELAPSED SYSTEM TIME (SEC)    =   0.0000    
       ELAPSED TOTAL CPU TIME (SEC) =   6.0000    
       ELAPSED WALLCLOCK TIME (SEC) =          2

               CONVERGENCE CHECKS FOR EQUILIBRIUM ITERATION     2


 AVERAGE FORCE                       168.       TIME AVG. FORCE        78.7    
 LARGEST RESIDUAL FORCE              435.       AT NODE      38705   DOF  2
   INSTANCE: D15W6-1                                                                         
 LARGEST INCREMENT OF DISP.          205.       AT NODE        840   DOF  2
   INSTANCE: D15W6-1                                                                         
 LARGEST CORRECTION TO DISP.        -91.8       AT NODE      49975   DOF  2
   INSTANCE: D15W6-1                                                                         
          FORCE     EQUILIBRIUM NOT ACHIEVED WITHIN TOLERANCE.

 COMPATIBILITY ERRORS:
    TYPE                NUMBER EXCEEDING TOLERANCE  MAXIMUM ERROR        IN ELEMENT
 VOLUMETRIC                      28062               -6.677E-03              11656
   INSTANCE: D15W6-1                                                                         
 
	SYMMETRIC DIRECT SPARSE SOLVER RUNNING ON
 	1 HOST:        1 MPI RANK  x 8 THREADS
 	NUMBER OF EQUATIONS:     182689
 	NUMBER OF RHS:           1
 	NUMBER OF FLOPS:         1.064e+11

     CHECK POINT   START OF SOLVER    

     CHECK POINT  END OF SOLVER       

       ELAPSED USER TIME (SEC)      =   5.1000    
       ELAPSED SYSTEM TIME (SEC)    =  0.10000    
       ELAPSED TOTAL CPU TIME (SEC) =   5.2000    
       ELAPSED WALLCLOCK TIME (SEC) =          2

               CONVERGENCE CHECKS FOR EQUILIBRIUM ITERATION     3


 AVERAGE FORCE                       166.       TIME AVG. FORCE        78.5    
 LARGEST RESIDUAL FORCE             -4.06       AT NODE      39197   DOF  2
   INSTANCE: D15W6-1                                                                         
 LARGEST INCREMENT OF DISP.          207.       AT NODE        840   DOF  2
   INSTANCE: D15W6-1                                                                         
 LARGEST CORRECTION TO DISP.         3.21       AT NODE      31747   DOF  2
   INSTANCE: D15W6-1                                                                         
          FORCE     EQUILIBRIUM NOT ACHIEVED WITHIN TOLERANCE.

 COMPATIBILITY ERRORS:
    TYPE                NUMBER EXCEEDING TOLERANCE  MAXIMUM ERROR        IN ELEMENT
 VOLUMETRIC                        191               -1.528E-05              17826
   INSTANCE: D15W6-1                                                                         
 
	SYMMETRIC DIRECT SPARSE SOLVER RUNNING ON
 	1 HOST:        1 MPI RANK  x 8 THREADS
 	NUMBER OF EQUATIONS:     182689
 	NUMBER OF RHS:           1
 	NUMBER OF FLOPS:         1.064e+11

     CHECK POINT   START OF SOLVER    

     CHECK POINT  END OF SOLVER       

       ELAPSED USER TIME (SEC)      =   6.5000    
       ELAPSED SYSTEM TIME (SEC)    =   0.0000    
       ELAPSED TOTAL CPU TIME (SEC) =   6.5000    
       ELAPSED WALLCLOCK TIME (SEC) =          2

               CONVERGENCE CHECKS FOR EQUILIBRIUM ITERATION     4


 AVERAGE FORCE                       169.       TIME AVG. FORCE        78.7    
 LARGEST RESIDUAL FORCE             3.851E-03   AT NODE      38705   DOF  2
   INSTANCE: D15W6-1                                                                         
 LARGEST INCREMENT OF DISP.          207.       AT NODE        840   DOF  2
   INSTANCE: D15W6-1                                                                         
 LARGEST CORRECTION TO DISP.        0.182       AT NODE        385   DOF  2
   INSTANCE: D15W6-1                                                                         
          THE FORCE     EQUILIBRIUM EQUATIONS HAVE CONVERGED

 COMPATIBILITY ERRORS:
    TYPE                NUMBER EXCEEDING TOLERANCE  MAXIMUM ERROR        IN ELEMENT
 VOLUMETRIC                          0               -4.614E-08              14124
   INSTANCE: D15W6-1                                                                         

 ITERATION SUMMARY FOR THE INCREMENT:   4 TOTAL ITERATIONS, OF WHICH
   0 ARE SEVERE DISCONTINUITY ITERATIONS AND  4 ARE EQUILIBRIUM ITERATIONS.

 TIME INCREMENT COMPLETED  8.447E-02,  FRACTION OF STEP COMPLETED  0.996    
 STEP TIME COMPLETED       0.996    ,  TOTAL TIME COMPLETED        0.996    


  INCREMENT    14 STARTS. ATTEMPT NUMBER  1, TIME INCREMENT  4.386E-03
 
	SYMMETRIC DIRECT SPARSE SOLVER RUNNING ON
 	1 HOST:        1 MPI RANK  x 8 THREADS
 	NUMBER OF EQUATIONS:     182689
 	NUMBER OF RHS:           1
 	NUMBER OF FLOPS:         1.064e+11

     CHECK POINT   START OF SOLVER    

     CHECK POINT  END OF SOLVER       

       ELAPSED USER TIME (SEC)      =   5.8000    
       ELAPSED SYSTEM TIME (SEC)    =   0.0000    
       ELAPSED TOTAL CPU TIME (SEC) =   5.8000    
       ELAPSED WALLCLOCK TIME (SEC) =          2

               CONVERGENCE CHECKS FOR EQUILIBRIUM ITERATION     1


 AVERAGE FORCE                       168.       TIME AVG. FORCE        85.1    
 LARGEST RESIDUAL FORCE             0.301       AT NODE      47421   DOF  2
   INSTANCE: D15W6-1                                                                         
 LARGEST INCREMENT OF DISP.          9.33       AT NODE        840   DOF  2
   INSTANCE: D15W6-1                                                                         
 LARGEST CORRECTION TO DISP.        -1.44       AT NODE      16581   DOF  2
   INSTANCE: D15W6-1                                                                         
 ESTIMATE OF DISP.    CORRECTION    4.140E-03
 FORCE     EQUILIB. ACCEPTED BASED ON SMALL RESIDUAL AND ESTIMATED CORRECTION

 COMPATIBILITY ERRORS:
    TYPE                NUMBER EXCEEDING TOLERANCE  MAXIMUM ERROR        IN ELEMENT
 VOLUMETRIC                          0                1.853E-06              15740
   INSTANCE: D15W6-1                                                                         

 ITERATION SUMMARY FOR THE INCREMENT:   1 TOTAL ITERATIONS, OF WHICH
   0 ARE SEVERE DISCONTINUITY ITERATIONS AND  1 ARE EQUILIBRIUM ITERATIONS.

 TIME INCREMENT COMPLETED  4.386E-03,  FRACTION OF STEP COMPLETED   1.00    
 STEP TIME COMPLETED        1.00    ,  TOTAL TIME COMPLETED         1.00    


          THE ANALYSIS HAS BEEN COMPLETED



     ANALYSIS SUMMARY:
     TOTAL OF         14  INCREMENTS
                       5  CUTBACKS IN AUTOMATIC INCREMENTATION
                      48  ITERATIONS INCLUDING CONTACT ITERATIONS IF PRESENT
                      48  PASSES THROUGH THE EQUATION SOLVER OF WHICH 
                      48  INVOLVE MATRIX DECOMPOSITION, INCLUDING
                       0  DECOMPOSITION(S) OF THE MASS MATRIX
                       1  REORDERING OF EQUATIONS TO MINIMIZE WAVEFRONT
                       0  ADDITIONAL RESIDUAL EVALUATIONS FOR LINE SEARCHES
                       0  ADDITIONAL OPERATOR EVALUATIONS FOR LINE SEARCHES
                       0  WARNING MESSAGES DURING USER INPUT PROCESSING
                      17  WARNING MESSAGES DURING ANALYSIS
                       0  ANALYSIS WARNINGS ARE NUMERICAL PROBLEM MESSAGES
                      12  ANALYSIS WARNINGS ARE NEGATIVE EIGENVALUE MESSAGES
                       0  ERROR MESSAGES



     JOB TIME SUMMARY
       USER TIME (SEC)      =   367.80    
       SYSTEM TIME (SEC)    =   3.7000    
       TOTAL CPU TIME (SEC) =   371.50    
       WALLCLOCK TIME (SEC) =        148
