1

   Abaqus 2022                                  Date 11-Nov-2022   Time 22:21:37
   For use by Supplied by Team-SolidSQUAD under license from Dassault Systemes or its subsidiary.

                                                                                 
                                                                                 
 STEP    1     INCREMENT     1     STEP TIME    0.00    


                        S T E P       1     S T A T I C   A N A L Y S I S


                                                                                          

     AUTOMATIC TIME CONTROL WITH -
          A SUGGESTED INITIAL TIME INCREMENT OF                 1.00    
          AND A TOTAL TIME PERIOD OF                            1.00    
          THE MINIMUM TIME INCREMENT ALLOWED IS                1.000E-08
          THE MAXIMUM TIME INCREMENT ALLOWED IS                 1.00    

     LINEAR EQUATION SOLVER TYPE         DIRECT SPARSE

 CONVERGENCE TOLERANCE PARAMETERS FOR FORCE    
     CRITERION FOR RESIDUAL FORCE     FOR A NONLINEAR PROBLEM          5.000E-03
     CRITERION FOR DISP.    CORRECTION IN A NONLINEAR PROBLEM          1.000E-02
     INITIAL VALUE OF TIME AVERAGE FORCE                               1.000E-02
     AVERAGE FORCE     IS TIME AVERAGE FORCE    
     ALTERNATE CRIT. FOR RESIDUAL FORCE     FOR A NONLINEAR PROBLEM    2.000E-02
     CRITERION FOR ZERO FORCE     RELATIVE TO TIME AVRG. FORCE         1.000E-05
     CRITERION FOR RESIDUAL FORCE     WHEN THERE IS ZERO FLUX          1.000E-05
     CRITERION FOR DISP.    CORRECTION WHEN THERE IS ZERO FLUX         1.000E-03
     CRITERION FOR RESIDUAL FORCE     FOR A LINEAR INCREMENT           1.000E-08
     FIELD CONVERSION RATIO                                             1.00    
     CRITERION FOR ZERO FORCE     REL. TO TIME AVRG. MAX. FORCE        1.000E-05
     CRITERION FOR ZERO DISP.    RELATIVE TO CHARACTERISTIC LENGTH     1.000E-08

     VOLUMETRIC STRAIN COMPATIBILITY TOLERANCE FOR HYBRID SOLIDS       1.000E-05
     AXIAL STRAIN COMPATIBILITY TOLERANCE FOR HYBRID BEAMS             1.000E-05
     TRANS. SHEAR STRAIN COMPATIBILITY TOLERANCE FOR HYBRID BEAMS      1.000E-05
     SOFT CONTACT CONSTRAINT COMPATIBILITY TOLERANCE FOR P>P0          5.000E-03
     SOFT CONTACT CONSTRAINT COMPATIBILITY TOLERANCE FOR P=0.0         0.100    
     CONTACT FORCE ERROR TOLERANCE FOR CONVERT SDI=YES                 1.00    
     DISPLACEMENT COMPATIBILITY TOLERANCE FOR DCOUP ELEMENTS           1.000E-05
     ROTATION COMPATIBILITY TOLERANCE FOR DCOUP ELEMENTS               1.000E-05

 EQUILIBRIUM WILL BE CHECKED FOR SEVERE DISCONTINUITY ITERATIONS

 TIME INCREMENTATION CONTROL PARAMETERS:
     FIRST EQUILIBRIUM ITERATION FOR CONSECUTIVE DIVERGENCE CHECK              4
     EQUILIBRIUM ITERATION AT WHICH LOG. CONVERGENCE RATE CHECK BEGINS         8
     EQUILIBRIUM ITERATION AFTER WHICH ALTERNATE RESIDUAL IS USED              9
     MAXIMUM EQUILIBRIUM ITERATIONS ALLOWED                                   16
     EQUILIBRIUM ITERATION COUNT FOR CUT-BACK IN NEXT INCREMENT               10
     MAXIMUM EQUILIB. ITERS IN TWO INCREMENTS FOR TIME INCREMENT INCREASE      4
     MAXIMUM ITERATIONS FOR SEVERE DISCONTINUITIES                            50
     MAXIMUM ATTEMPTS ALLOWED IN AN INCREMENT                                  5
     MAXIMUM DISCON. ITERS IN TWO INCREMENTS FOR TIME INCREMENT INCREASE      50
     MAXIMUM CONTACT AUGMENTATIONS FOR *SURFACE BEHAVIOR,AUGMENTED LAGRANGE   50
     CUT-BACK FACTOR AFTER DIVERGENCE                                 0.2500    
     CUT-BACK FACTOR FOR TOO SLOW CONVERGENCE                         0.5000    
     CUT-BACK FACTOR AFTER TOO MANY EQUILIBRIUM ITERATIONS            0.7500    
     CUT-BACK FACTOR AFTER TOO MANY SEVERE DISCONTINUITY ITERATIONS   0.2500    
     CUT-BACK FACTOR AFTER PROBLEMS IN ELEMENT ASSEMBLY               0.2500    
     INCREASE FACTOR AFTER TWO INCREMENTS THAT CONVERGE QUICKLY        1.500    
     MAX. TIME INCREMENT INCREASE FACTOR ALLOWED                       1.500    
     MAX. TIME INCREMENT INCREASE FACTOR ALLOWED (DYNAMICS)            1.250    
     MAX. TIME INCREMENT INCREASE FACTOR ALLOWED (DIFFUSION)           2.000    
     MINIMUM TIME INCREMENT RATIO FOR EXTRAPOLATION TO OCCUR          0.1000    
     MAX. RATIO OF TIME INCREMENT TO STABILITY LIMIT                   1.000    
     FRACTION OF STABILITY LIMIT FOR NEW TIME INCREMENT               0.9500    
     TIME INCREMENT INCREASE FACTOR BEFORE A TIME POINT                1.000    
     GLOBAL STABILIZATION CONTROL IS NOT USED

          PRINT OF INCREMENT NUMBER, TIME, ETC., EVERY    1  INCREMENTS

     THE MAXIMUM NUMBER OF INCREMENTS IN THIS STEP IS                 1000000

          LARGE DISPLACEMENT THEORY WILL BE USED

     LINEAR EXTRAPOLATION WILL BE USED

     CHARACTERISTIC ELEMENT LENGTH      179.    

     DETAILS REGARDING ACTUAL SOLUTION WAVEFRONT REQUESTED

     DETAILED OUTPUT OF DIAGNOSTICS TO DATABASE REQUESTED

     PRINT OF INCREMENT NUMBER, TIME, ETC., TO THE MESSAGE FILE EVERY     1  INCREMENTS

     ELEMENT OPERATIONS WILL BE CARRIED OUT IN PARALLEL USING   8 THREADS ON 1 DOMAIN

     PARALLEL CONTACT TRACKING ENABLED


     COLLECTING MODEL CONSTRAINT INFORMATION FOR OVERCONSTRAINT CHECKS

     COLLECTING STEP CONSTRAINT INFORMATION FOR OVERCONSTRAINT CHECKS


  INCREMENT     1 STARTS. ATTEMPT NUMBER  1, TIME INCREMENT   1.00    
 
     INITIAL ELEMENT LOAD BALANCE
            DOMAIN    1     THREAD    NUMBER OF ELEMENTS
                              1            3736
                              2            3704
                              3            3600
                              4            3600
                              5            3728
                              6            3760
                              7            3832
                              8            3616
 
	SYMMETRIC DIRECT SPARSE SOLVER RUNNING ON
 	1 HOST:        1 MPI RANK  x 8 THREADS
 	NUMBER OF EQUATIONS:     178370
 	NUMBER OF RHS:           1
 	NUMBER OF FLOPS:         1.036e+11

     CHECK POINT   START OF SOLVER    

     CHECK POINT  END OF SOLVER       

       ELAPSED USER TIME (SEC)      =   4.2000    
       ELAPSED SYSTEM TIME (SEC)    =   0.0000    
       ELAPSED TOTAL CPU TIME (SEC) =   4.2000    
       ELAPSED WALLCLOCK TIME (SEC) =          1
 

 ***WARNING: THE SYSTEM MATRIX HAS 8 NEGATIVE EIGENVALUES.

     NEGATIVE EIGENVALUES MEAN THAT THE SYSTEM MATRIX IS NOT 
     POSITIVE DEFINITE:
     FOR EXAMPLE, A BIFURCATION (BUCKLING) LOAD MAY HAVE BEEN EXCEEDED.
   ELEMENT D16W5-1.812 IS DISTORTING EXCESSIVELY.
   ELEMENT D16W5-1.812 IS DISTORTING EXCESSIVELY.
   ELEMENT D16W5-1.1487 IS DISTORTING EXCESSIVELY.
   ELEMENT D16W5-1.1487 IS DISTORTING EXCESSIVELY.
   ELEMENT D16W5-1.1944 IS DISTORTING EXCESSIVELY.
   ELEMENT D16W5-1.1944 IS DISTORTING EXCESSIVELY.
   ELEMENT D16W5-1.2008 IS DISTORTING EXCESSIVELY.
   ELEMENT D16W5-1.2223 IS DISTORTING EXCESSIVELY.
   ELEMENT D16W5-1.2841 IS DISTORTING EXCESSIVELY.
   ELEMENT D16W5-1.3248 IS DISTORTING EXCESSIVELY.
   ELEMENT D16W5-1.3647 IS DISTORTING EXCESSIVELY.
   ELEMENT D16W5-1.3647 IS DISTORTING EXCESSIVELY.
   ELEMENT D16W5-1.5339 IS DISTORTING EXCESSIVELY.
   ELEMENT D16W5-1.5339 IS DISTORTING EXCESSIVELY.
   ELEMENT D16W5-1.6637 IS DISTORTING EXCESSIVELY.
   ELEMENT D16W5-1.6637 IS DISTORTING EXCESSIVELY.
   ELEMENT D16W5-1.6637 IS DISTORTING EXCESSIVELY.
   ELEMENT D16W5-1.7452 IS DISTORTING EXCESSIVELY.
   ELEMENT D16W5-1.7452 IS DISTORTING EXCESSIVELY.
   ELEMENT D16W5-1.7633 IS DISTORTING EXCESSIVELY.
   ELEMENT D16W5-1.7633 IS DISTORTING EXCESSIVELY.
   ELEMENT D16W5-1.7633 IS DISTORTING EXCESSIVELY.
   ELEMENT D16W5-1.7635 IS DISTORTING EXCESSIVELY.
   ELEMENT D16W5-1.7635 IS DISTORTING EXCESSIVELY.
   ELEMENT D16W5-1.7635 IS DISTORTING EXCESSIVELY.
   ELEMENT D16W5-1.7635 IS DISTORTING EXCESSIVELY.
   ELEMENT D16W5-1.8931 IS DISTORTING EXCESSIVELY.
   ELEMENT D16W5-1.8931 IS DISTORTING EXCESSIVELY.
   ELEMENT D16W5-1.8931 IS DISTORTING EXCESSIVELY.
   ELEMENT D16W5-1.8936 IS DISTORTING EXCESSIVELY.
   ELEMENT D16W5-1.8936 IS DISTORTING EXCESSIVELY.
   ELEMENT D16W5-1.9457 IS DISTORTING EXCESSIVELY.
   ELEMENT D16W5-1.9464 IS DISTORTING EXCESSIVELY.
   ELEMENT D16W5-1.9464 IS DISTORTING EXCESSIVELY.
   ELEMENT D16W5-1.9887 IS DISTORTING EXCESSIVELY.
   ELEMENT D16W5-1.9887 IS DISTORTING EXCESSIVELY.
   ELEMENT D16W5-1.10483 IS DISTORTING EXCESSIVELY.
   ELEMENT D16W5-1.10483 IS DISTORTING EXCESSIVELY.
   ELEMENT D16W5-1.10488 IS DISTORTING EXCESSIVELY.
   ELEMENT D16W5-1.10842 IS DISTORTING EXCESSIVELY.
   ELEMENT D16W5-1.10842 IS DISTORTING EXCESSIVELY.
   ELEMENT D16W5-1.10842 IS DISTORTING EXCESSIVELY.
   ELEMENT D16W5-1.11209 IS DISTORTING EXCESSIVELY.
   ELEMENT D16W5-1.11209 IS DISTORTING EXCESSIVELY.
   ELEMENT D16W5-1.11209 IS DISTORTING EXCESSIVELY.
   ELEMENT D16W5-1.11523 IS DISTORTING EXCESSIVELY.
   ELEMENT D16W5-1.11523 IS DISTORTING EXCESSIVELY.
   ELEMENT D16W5-1.11759 IS DISTORTING EXCESSIVELY.
   ELEMENT D16W5-1.11908 IS DISTORTING EXCESSIVELY.
   ELEMENT D16W5-1.11908 IS DISTORTING EXCESSIVELY.
   ELEMENT D16W5-1.12717 IS DISTORTING EXCESSIVELY.
   ELEMENT D16W5-1.12717 IS DISTORTING EXCESSIVELY.
   ELEMENT D16W5-1.13666 IS DISTORTING EXCESSIVELY.
   ELEMENT D16W5-1.13666 IS DISTORTING EXCESSIVELY.
   ELEMENT D16W5-1.13666 IS DISTORTING EXCESSIVELY.
   ELEMENT D16W5-1.13669 IS DISTORTING EXCESSIVELY.
   ELEMENT D16W5-1.13669 IS DISTORTING EXCESSIVELY.
   ELEMENT D16W5-1.13669 IS DISTORTING EXCESSIVELY.
   ELEMENT D16W5-1.13671 IS DISTORTING EXCESSIVELY.
   ELEMENT D16W5-1.13671 IS DISTORTING EXCESSIVELY.
   ELEMENT D16W5-1.16717 IS DISTORTING EXCESSIVELY.
   ELEMENT D16W5-1.16927 IS DISTORTING EXCESSIVELY.
   ELEMENT D16W5-1.18008 IS DISTORTING EXCESSIVELY.
   ELEMENT D16W5-1.18141 IS DISTORTING EXCESSIVELY.
   ELEMENT D16W5-1.18141 IS DISTORTING EXCESSIVELY.
   ELEMENT D16W5-1.18654 IS DISTORTING EXCESSIVELY.
   ELEMENT D16W5-1.18654 IS DISTORTING EXCESSIVELY.
   ELEMENT D16W5-1.18654 IS DISTORTING EXCESSIVELY.
   ELEMENT D16W5-1.19564 IS DISTORTING EXCESSIVELY.
   ELEMENT D16W5-1.19814 IS DISTORTING EXCESSIVELY.
   ELEMENT D16W5-1.19814 IS DISTORTING EXCESSIVELY.
   ELEMENT D16W5-1.19816 IS DISTORTING EXCESSIVELY.
   ELEMENT D16W5-1.20418 IS DISTORTING EXCESSIVELY.
   ELEMENT D16W5-1.20418 IS DISTORTING EXCESSIVELY.
   ELEMENT D16W5-1.20418 IS DISTORTING EXCESSIVELY.
   ELEMENT D16W5-1.21723 IS DISTORTING EXCESSIVELY.
   ELEMENT D16W5-1.22118 IS DISTORTING EXCESSIVELY.
   ELEMENT D16W5-1.22349 IS DISTORTING EXCESSIVELY.
   ELEMENT D16W5-1.22657 IS DISTORTING EXCESSIVELY.
   ELEMENT D16W5-1.22657 IS DISTORTING EXCESSIVELY.
   ELEMENT D16W5-1.23162 IS DISTORTING EXCESSIVELY.
   ELEMENT D16W5-1.23162 IS DISTORTING EXCESSIVELY.
   ELEMENT D16W5-1.23162 IS DISTORTING EXCESSIVELY.
   ELEMENT D16W5-1.23728 IS DISTORTING EXCESSIVELY.
   ELEMENT D16W5-1.23728 IS DISTORTING EXCESSIVELY.
   ELEMENT D16W5-1.24048 IS DISTORTING EXCESSIVELY.
   ELEMENT D16W5-1.24048 IS DISTORTING EXCESSIVELY.
   ELEMENT D16W5-1.24229 IS DISTORTING EXCESSIVELY.
   ELEMENT D16W5-1.24229 IS DISTORTING EXCESSIVELY.
   ELEMENT D16W5-1.24231 IS DISTORTING EXCESSIVELY.
   ELEMENT D16W5-1.24596 IS DISTORTING EXCESSIVELY.
   ELEMENT D16W5-1.24596 IS DISTORTING EXCESSIVELY.
   ELEMENT D16W5-1.24596 IS DISTORTING EXCESSIVELY.
   ELEMENT D16W5-1.24597 IS DISTORTING EXCESSIVELY.
   ELEMENT D16W5-1.24597 IS DISTORTING EXCESSIVELY.
   ELEMENT D16W5-1.24597 IS DISTORTING EXCESSIVELY.
   ELEMENT D16W5-1.24599 IS DISTORTING EXCESSIVELY.
   ELEMENT D16W5-1.24599 IS DISTORTING EXCESSIVELY.
   ELEMENT D16W5-1.24599 IS DISTORTING EXCESSIVELY.
   ELEMENT D16W5-1.25989 IS DISTORTING EXCESSIVELY.
   ELEMENT D16W5-1.25989 IS DISTORTING EXCESSIVELY.
   ELEMENT D16W5-1.25989 IS DISTORTING EXCESSIVELY.
   ELEMENT D16W5-1.26732 IS DISTORTING EXCESSIVELY.
   ELEMENT D16W5-1.27354 IS DISTORTING EXCESSIVELY.
   ELEMENT D16W5-1.27354 IS DISTORTING EXCESSIVELY.
   ELEMENT D16W5-1.27354 IS DISTORTING EXCESSIVELY.
   ELEMENT D16W5-1.28401 IS DISTORTING EXCESSIVELY.
   ELEMENT D16W5-1.28401 IS DISTORTING EXCESSIVELY.
   ELEMENT D16W5-1.29224 IS DISTORTING EXCESSIVELY.
   ELEMENT D16W5-1.29224 IS DISTORTING EXCESSIVELY.
   ELEMENT D16W5-1.29224 IS DISTORTING EXCESSIVELY.
   ELEMENT D16W5-1.1945 IS DISTORTING EXCESSIVELY.
   ELEMENT D16W5-1.1947 IS DISTORTING EXCESSIVELY.
   ELEMENT D16W5-1.2010 IS DISTORTING EXCESSIVELY.
   ELEMENT D16W5-1.2011 IS DISTORTING EXCESSIVELY.
   ELEMENT D16W5-1.2011 IS DISTORTING EXCESSIVELY.
   ELEMENT D16W5-1.2013 IS DISTORTING EXCESSIVELY.
   ELEMENT D16W5-1.2589 IS DISTORTING EXCESSIVELY.
   ELEMENT D16W5-1.2592 IS DISTORTING EXCESSIVELY.
   ELEMENT D16W5-1.2889 IS DISTORTING EXCESSIVELY.
   ELEMENT D16W5-1.2889 IS DISTORTING EXCESSIVELY.
   ELEMENT D16W5-1.3169 IS DISTORTING EXCESSIVELY.
   ELEMENT D16W5-1.3602 IS DISTORTING EXCESSIVELY.
   ELEMENT D16W5-1.3602 IS DISTORTING EXCESSIVELY.
   ELEMENT D16W5-1.3896 IS DISTORTING EXCESSIVELY.
   ELEMENT D16W5-1.3896 IS DISTORTING EXCESSIVELY.
   ELEMENT D16W5-1.4226 IS DISTORTING EXCESSIVELY.
   ELEMENT D16W5-1.4230 IS DISTORTING EXCESSIVELY.
   ELEMENT D16W5-1.4232 IS DISTORTING EXCESSIVELY.
   ELEMENT D16W5-1.5390 IS DISTORTING EXCESSIVELY.
   ELEMENT D16W5-1.5390 IS DISTORTING EXCESSIVELY.
   ELEMENT D16W5-1.5761 IS DISTORTING EXCESSIVELY.
   ELEMENT D16W5-1.6396 IS DISTORTING EXCESSIVELY.
   ELEMENT D16W5-1.6396 IS DISTORTING EXCESSIVELY.
   ELEMENT D16W5-1.6399 IS DISTORTING EXCESSIVELY.
   ELEMENT D16W5-1.6399 IS DISTORTING EXCESSIVELY.
   ELEMENT D16W5-1.6399 IS DISTORTING EXCESSIVELY.
   ELEMENT D16W5-1.6503 IS DISTORTING EXCESSIVELY.
   ELEMENT D16W5-1.6503 IS DISTORTING EXCESSIVELY.
   ELEMENT D16W5-1.6503 IS DISTORTING EXCESSIVELY.
   ELEMENT D16W5-1.6667 IS DISTORTING EXCESSIVELY.
   ELEMENT D16W5-1.6667 IS DISTORTING EXCESSIVELY.
   ELEMENT D16W5-1.6667 IS DISTORTING EXCESSIVELY.
   ELEMENT D16W5-1.6956 IS DISTORTING EXCESSIVELY.
   ELEMENT D16W5-1.6956 IS DISTORTING EXCESSIVELY.
   ELEMENT D16W5-1.6956 IS DISTORTING EXCESSIVELY.
   ELEMENT D16W5-1.7090 IS DISTORTING EXCESSIVELY.
   ELEMENT D16W5-1.7446 IS DISTORTING EXCESSIVELY.
   ELEMENT D16W5-1.7448 IS DISTORTING EXCESSIVELY.
   ELEMENT D16W5-1.7448 IS DISTORTING EXCESSIVELY.
   ELEMENT D16W5-1.7448 IS DISTORTING EXCESSIVELY.
   ELEMENT D16W5-1.7546 IS DISTORTING EXCESSIVELY.
   ELEMENT D16W5-1.7604 IS DISTORTING EXCESSIVELY.
   ELEMENT D16W5-1.7604 IS DISTORTING EXCESSIVELY.
   ELEMENT D16W5-1.7675 IS DISTORTING EXCESSIVELY.
   ELEMENT D16W5-1.7675 IS DISTORTING EXCESSIVELY.
   ELEMENT D16W5-1.7675 IS DISTORTING EXCESSIVELY.
   ELEMENT D16W5-1.7984 IS DISTORTING EXCESSIVELY.
   ELEMENT D16W5-1.7984 IS DISTORTING EXCESSIVELY.
   ELEMENT D16W5-1.8389 IS DISTORTING EXCESSIVELY.
   ELEMENT D16W5-1.8389 IS DISTORTING EXCESSIVELY.
   ELEMENT D16W5-1.8660 IS DISTORTING EXCESSIVELY.
   ELEMENT D16W5-1.8660 IS DISTORTING EXCESSIVELY.
   ELEMENT D16W5-1.8767 IS DISTORTING EXCESSIVELY.
   ELEMENT D16W5-1.8834 IS DISTORTING EXCESSIVELY.
   ELEMENT D16W5-1.8834 IS DISTORTING EXCESSIVELY.
   ELEMENT D16W5-1.8834 IS DISTORTING EXCESSIVELY.
   ELEMENT D16W5-1.8835 IS DISTORTING EXCESSIVELY.
   ELEMENT D16W5-1.8835 IS DISTORTING EXCESSIVELY.
   ELEMENT D16W5-1.8997 IS DISTORTING EXCESSIVELY.
   ELEMENT D16W5-1.8997 IS DISTORTING EXCESSIVELY.
   ELEMENT D16W5-1.8997 IS DISTORTING EXCESSIVELY.
   ELEMENT D16W5-1.9100 IS DISTORTING EXCESSIVELY.
   ELEMENT D16W5-1.9100 IS DISTORTING EXCESSIVELY.
   ELEMENT D16W5-1.9100 IS DISTORTING EXCESSIVELY.
   ELEMENT D16W5-1.9101 IS DISTORTING EXCESSIVELY.
   ELEMENT D16W5-1.9101 IS DISTORTING EXCESSIVELY.
   ELEMENT D16W5-1.9101 IS DISTORTING EXCESSIVELY.
   ELEMENT D16W5-1.9351 IS DISTORTING EXCESSIVELY.
   ELEMENT D16W5-1.9351 IS DISTORTING EXCESSIVELY.
   ELEMENT D16W5-1.9351 IS DISTORTING EXCESSIVELY.
   ELEMENT D16W5-1.9448 IS DISTORTING EXCESSIVELY.
   ELEMENT D16W5-1.9448 IS DISTORTING EXCESSIVELY.
   ELEMENT D16W5-1.9448 IS DISTORTING EXCESSIVELY.
   ELEMENT D16W5-1.9559 IS DISTORTING EXCESSIVELY.
   ELEMENT D16W5-1.9559 IS DISTORTING EXCESSIVELY.
   ELEMENT D16W5-1.9559 IS DISTORTING EXCESSIVELY.
   ELEMENT D16W5-1.9691 IS DISTORTING EXCESSIVELY.
   ELEMENT D16W5-1.9691 IS DISTORTING EXCESSIVELY.
   ELEMENT D16W5-1.9691 IS DISTORTING EXCESSIVELY.
   ELEMENT D16W5-1.10037 IS DISTORTING EXCESSIVELY.
   ELEMENT D16W5-1.10203 IS DISTORTING EXCESSIVELY.
   ELEMENT D16W5-1.10203 IS DISTORTING EXCESSIVELY.
   ELEMENT D16W5-1.10203 IS DISTORTING EXCESSIVELY.
   ELEMENT D16W5-1.10398 IS DISTORTING EXCESSIVELY.
   ELEMENT D16W5-1.10471 IS DISTORTING EXCESSIVELY.
   ELEMENT D16W5-1.10471 IS DISTORTING EXCESSIVELY.
   ELEMENT D16W5-1.10471 IS DISTORTING EXCESSIVELY.
   ELEMENT D16W5-1.10601 IS DISTORTING EXCESSIVELY.
   ELEMENT D16W5-1.10690 IS DISTORTING EXCESSIVELY.
   ELEMENT D16W5-1.10690 IS DISTORTING EXCESSIVELY.
   ELEMENT D16W5-1.10691 IS DISTORTING EXCESSIVELY.
   ELEMENT D16W5-1.10695 IS DISTORTING EXCESSIVELY.
   ELEMENT D16W5-1.10868 IS DISTORTING EXCESSIVELY.
   ELEMENT D16W5-1.11033 IS DISTORTING EXCESSIVELY.
   ELEMENT D16W5-1.11034 IS DISTORTING EXCESSIVELY.
   ELEMENT D16W5-1.11034 IS DISTORTING EXCESSIVELY.
   ELEMENT D16W5-1.11034 IS DISTORTING EXCESSIVELY.
   ELEMENT D16W5-1.11181 IS DISTORTING EXCESSIVELY.
   ELEMENT D16W5-1.11181 IS DISTORTING EXCESSIVELY.
   ELEMENT D16W5-1.11181 IS DISTORTING EXCESSIVELY.
   ELEMENT D16W5-1.11264 IS DISTORTING EXCESSIVELY.
   ELEMENT D16W5-1.11264 IS DISTORTING EXCESSIVELY.
   ELEMENT D16W5-1.11264 IS DISTORTING EXCESSIVELY.
   ELEMENT D16W5-1.11314 IS DISTORTING EXCESSIVELY.
   ELEMENT D16W5-1.11314 IS DISTORTING EXCESSIVELY.
   ELEMENT D16W5-1.11314 IS DISTORTING EXCESSIVELY.
   ELEMENT D16W5-1.11481 IS DISTORTING EXCESSIVELY.
   ELEMENT D16W5-1.11481 IS DISTORTING EXCESSIVELY.
   ELEMENT D16W5-1.11646 IS DISTORTING EXCESSIVELY.
   ELEMENT D16W5-1.11666 IS DISTORTING EXCESSIVELY.
   ELEMENT D16W5-1.11666 IS DISTORTING EXCESSIVELY.
   ELEMENT D16W5-1.11740 IS DISTORTING EXCESSIVELY.
   ELEMENT D16W5-1.11740 IS DISTORTING EXCESSIVELY.
   ELEMENT D16W5-1.11741 IS DISTORTING EXCESSIVELY.
   ELEMENT D16W5-1.11741 IS DISTORTING EXCESSIVELY.
   ELEMENT D16W5-1.12044 IS DISTORTING EXCESSIVELY.
   ELEMENT D16W5-1.12274 IS DISTORTING EXCESSIVELY.
   ELEMENT D16W5-1.12274 IS DISTORTING EXCESSIVELY.
   ELEMENT D16W5-1.12274 IS DISTORTING EXCESSIVELY.
   ELEMENT D16W5-1.12274 IS DISTORTING EXCESSIVELY.
   ELEMENT D16W5-1.12756 IS DISTORTING EXCESSIVELY.
   ELEMENT D16W5-1.12756 IS DISTORTING EXCESSIVELY.
   ELEMENT D16W5-1.12756 IS DISTORTING EXCESSIVELY.
   ELEMENT D16W5-1.12756 IS DISTORTING EXCESSIVELY.
   ELEMENT D16W5-1.12758 IS DISTORTING EXCESSIVELY.
   ELEMENT D16W5-1.12758 IS DISTORTING EXCESSIVELY.
   ELEMENT D16W5-1.13613 IS DISTORTING EXCESSIVELY.
   ELEMENT D16W5-1.13613 IS DISTORTING EXCESSIVELY.
   ELEMENT D16W5-1.13613 IS DISTORTING EXCESSIVELY.
   ELEMENT D16W5-1.13830 IS DISTORTING EXCESSIVELY.
   ELEMENT D16W5-1.13830 IS DISTORTING EXCESSIVELY.
   ELEMENT D16W5-1.13830 IS DISTORTING EXCESSIVELY.
   ELEMENT D16W5-1.14082 IS DISTORTING EXCESSIVELY.
   ELEMENT D16W5-1.14082 IS DISTORTING EXCESSIVELY.
   ELEMENT D16W5-1.14828 IS DISTORTING EXCESSIVELY.
   ELEMENT D16W5-1.14828 IS DISTORTING EXCESSIVELY.
   ELEMENT D16W5-1.15188 IS DISTORTING EXCESSIVELY.
   ELEMENT D16W5-1.16536 IS DISTORTING EXCESSIVELY.
   ELEMENT D16W5-1.16800 IS DISTORTING EXCESSIVELY.
   ELEMENT D16W5-1.16847 IS DISTORTING EXCESSIVELY.
   ELEMENT D16W5-1.16847 IS DISTORTING EXCESSIVELY.
   ELEMENT D16W5-1.17358 IS DISTORTING EXCESSIVELY.
   ELEMENT D16W5-1.17986 IS DISTORTING EXCESSIVELY.
   ELEMENT D16W5-1.17986 IS DISTORTING EXCESSIVELY.
   ELEMENT D16W5-1.17986 IS DISTORTING EXCESSIVELY.
   ELEMENT D16W5-1.17986 IS DISTORTING EXCESSIVELY.
   ELEMENT D16W5-1.17987 IS DISTORTING EXCESSIVELY.
   ELEMENT D16W5-1.17987 IS DISTORTING EXCESSIVELY.
   ELEMENT D16W5-1.17987 IS DISTORTING EXCESSIVELY.
   ELEMENT D16W5-1.18577 IS DISTORTING EXCESSIVELY.
   ELEMENT D16W5-1.18578 IS DISTORTING EXCESSIVELY.
   ELEMENT D16W5-1.18578 IS DISTORTING EXCESSIVELY.
   ELEMENT D16W5-1.18736 IS DISTORTING EXCESSIVELY.
   ELEMENT D16W5-1.18954 IS DISTORTING EXCESSIVELY.
   ELEMENT D16W5-1.18954 IS DISTORTING EXCESSIVELY.
   ELEMENT D16W5-1.18954 IS DISTORTING EXCESSIVELY.
   ELEMENT D16W5-1.19349 IS DISTORTING EXCESSIVELY.
   ELEMENT D16W5-1.19393 IS DISTORTING EXCESSIVELY.
   ELEMENT D16W5-1.19393 IS DISTORTING EXCESSIVELY.
   ELEMENT D16W5-1.19693 IS DISTORTING EXCESSIVELY.
   ELEMENT D16W5-1.19693 IS DISTORTING EXCESSIVELY.
   ELEMENT D16W5-1.19820 IS DISTORTING EXCESSIVELY.
   ELEMENT D16W5-1.19822 IS DISTORTING EXCESSIVELY.
   ELEMENT D16W5-1.19822 IS DISTORTING EXCESSIVELY.
   ELEMENT D16W5-1.19822 IS DISTORTING EXCESSIVELY.
   ELEMENT D16W5-1.19822 IS DISTORTING EXCESSIVELY.
   ELEMENT D16W5-1.20029 IS DISTORTING EXCESSIVELY.
   ELEMENT D16W5-1.20029 IS DISTORTING EXCESSIVELY.
   ELEMENT D16W5-1.20029 IS DISTORTING EXCESSIVELY.
   ELEMENT D16W5-1.20306 IS DISTORTING EXCESSIVELY.
   ELEMENT D16W5-1.20306 IS DISTORTING EXCESSIVELY.
   ELEMENT D16W5-1.21213 IS DISTORTING EXCESSIVELY.
   ELEMENT D16W5-1.21412 IS DISTORTING EXCESSIVELY.
   ELEMENT D16W5-1.21412 IS DISTORTING EXCESSIVELY.
   ELEMENT D16W5-1.21883 IS DISTORTING EXCESSIVELY.
   ELEMENT D16W5-1.22024 IS DISTORTING EXCESSIVELY.
   ELEMENT D16W5-1.22140 IS DISTORTING EXCESSIVELY.
   ELEMENT D16W5-1.22140 IS DISTORTING EXCESSIVELY.
   ELEMENT D16W5-1.22140 IS DISTORTING EXCESSIVELY.
   ELEMENT D16W5-1.22566 IS DISTORTING EXCESSIVELY.
   ELEMENT D16W5-1.22566 IS DISTORTING EXCESSIVELY.
   ELEMENT D16W5-1.22566 IS DISTORTING EXCESSIVELY.
   ELEMENT D16W5-1.22875 IS DISTORTING EXCESSIVELY.
   ELEMENT D16W5-1.22983 IS DISTORTING EXCESSIVELY.
   ELEMENT D16W5-1.22983 IS DISTORTING EXCESSIVELY.
   ELEMENT D16W5-1.23123 IS DISTORTING EXCESSIVELY.
   ELEMENT D16W5-1.23202 IS DISTORTING EXCESSIVELY.
   ELEMENT D16W5-1.23202 IS DISTORTING EXCESSIVELY.
   ELEMENT D16W5-1.23202 IS DISTORTING EXCESSIVELY.
   ELEMENT D16W5-1.23204 IS DISTORTING EXCESSIVELY.
   ELEMENT D16W5-1.23204 IS DISTORTING EXCESSIVELY.
   ELEMENT D16W5-1.23204 IS DISTORTING EXCESSIVELY.
   ELEMENT D16W5-1.23637 IS DISTORTING EXCESSIVELY.
   ELEMENT D16W5-1.23637 IS DISTORTING EXCESSIVELY.
   ELEMENT D16W5-1.23637 IS DISTORTING EXCESSIVELY.
   ELEMENT D16W5-1.23935 IS DISTORTING EXCESSIVELY.
   ELEMENT D16W5-1.23935 IS DISTORTING EXCESSIVELY.
   ELEMENT D16W5-1.24004 IS DISTORTING EXCESSIVELY.
   ELEMENT D16W5-1.24005 IS DISTORTING EXCESSIVELY.
   ELEMENT D16W5-1.24005 IS DISTORTING EXCESSIVELY.
   ELEMENT D16W5-1.24006 IS DISTORTING EXCESSIVELY.
   ELEMENT D16W5-1.24006 IS DISTORTING EXCESSIVELY.
   ELEMENT D16W5-1.24006 IS DISTORTING EXCESSIVELY.
   ELEMENT D16W5-1.24186 IS DISTORTING EXCESSIVELY.
   ELEMENT D16W5-1.24262 IS DISTORTING EXCESSIVELY.
   ELEMENT D16W5-1.24345 IS DISTORTING EXCESSIVELY.
   ELEMENT D16W5-1.24345 IS DISTORTING EXCESSIVELY.
   ELEMENT D16W5-1.24349 IS DISTORTING EXCESSIVELY.
   ELEMENT D16W5-1.24349 IS DISTORTING EXCESSIVELY.
   ELEMENT D16W5-1.24483 IS DISTORTING EXCESSIVELY.
   ELEMENT D16W5-1.24483 IS DISTORTING EXCESSIVELY.
   ELEMENT D16W5-1.24562 IS DISTORTING EXCESSIVELY.
   ELEMENT D16W5-1.24562 IS DISTORTING EXCESSIVELY.
   ELEMENT D16W5-1.24654 IS DISTORTING EXCESSIVELY.
   ELEMENT D16W5-1.24711 IS DISTORTING EXCESSIVELY.
   ELEMENT D16W5-1.24711 IS DISTORTING EXCESSIVELY.
   ELEMENT D16W5-1.24711 IS DISTORTING EXCESSIVELY.
   ELEMENT D16W5-1.24851 IS DISTORTING EXCESSIVELY.
   ELEMENT D16W5-1.24851 IS DISTORTING EXCESSIVELY.
   ELEMENT D16W5-1.24960 IS DISTORTING EXCESSIVELY.
   ELEMENT D16W5-1.24960 IS DISTORTING EXCESSIVELY.
   ELEMENT D16W5-1.24960 IS DISTORTING EXCESSIVELY.
   ELEMENT D16W5-1.25122 IS DISTORTING EXCESSIVELY.
   ELEMENT D16W5-1.25209 IS DISTORTING EXCESSIVELY.
   ELEMENT D16W5-1.25209 IS DISTORTING EXCESSIVELY.
   ELEMENT D16W5-1.25209 IS DISTORTING EXCESSIVELY.
   ELEMENT D16W5-1.25421 IS DISTORTING EXCESSIVELY.
   ELEMENT D16W5-1.25421 IS DISTORTING EXCESSIVELY.
   ELEMENT D16W5-1.25659 IS DISTORTING EXCESSIVELY.
   ELEMENT D16W5-1.25702 IS DISTORTING EXCESSIVELY.
   ELEMENT D16W5-1.25702 IS DISTORTING EXCESSIVELY.
   ELEMENT D16W5-1.25702 IS DISTORTING EXCESSIVELY.
   ELEMENT D16W5-1.25869 IS DISTORTING EXCESSIVELY.
   ELEMENT D16W5-1.25869 IS DISTORTING EXCESSIVELY.
   ELEMENT D16W5-1.25869 IS DISTORTING EXCESSIVELY.
   ELEMENT D16W5-1.26010 IS DISTORTING EXCESSIVELY.
   ELEMENT D16W5-1.26010 IS DISTORTING EXCESSIVELY.
   ELEMENT D16W5-1.26011 IS DISTORTING EXCESSIVELY.
   ELEMENT D16W5-1.26337 IS DISTORTING EXCESSIVELY.
   ELEMENT D16W5-1.26476 IS DISTORTING EXCESSIVELY.
   ELEMENT D16W5-1.26476 IS DISTORTING EXCESSIVELY.
   ELEMENT D16W5-1.26476 IS DISTORTING EXCESSIVELY.
   ELEMENT D16W5-1.27092 IS DISTORTING EXCESSIVELY.
   ELEMENT D16W5-1.27272 IS DISTORTING EXCESSIVELY.
   ELEMENT D16W5-1.27272 IS DISTORTING EXCESSIVELY.
   ELEMENT D16W5-1.27272 IS DISTORTING EXCESSIVELY.
   ELEMENT D16W5-1.27880 IS DISTORTING EXCESSIVELY.
   ELEMENT D16W5-1.27880 IS DISTORTING EXCESSIVELY.
   ELEMENT D16W5-1.27880 IS DISTORTING EXCESSIVELY.
   ELEMENT D16W5-1.28246 IS DISTORTING EXCESSIVELY.
   ELEMENT D16W5-1.28348 IS DISTORTING EXCESSIVELY.
   ELEMENT D16W5-1.28464 IS DISTORTING EXCESSIVELY.
   ELEMENT D16W5-1.28942 IS DISTORTING EXCESSIVELY.
   ELEMENT D16W5-1.28942 IS DISTORTING EXCESSIVELY.
   ELEMENT D16W5-1.29487 IS DISTORTING EXCESSIVELY.
   ELEMENT D16W5-1.29487 IS DISTORTING EXCESSIVELY.
   ELEMENT D16W5-1.29487 IS DISTORTING EXCESSIVELY.
   ELEMENT D16W5-1.1113 IS DISTORTING EXCESSIVELY.
   ELEMENT D16W5-1.1189 IS DISTORTING EXCESSIVELY.
   ELEMENT D16W5-1.1189 IS DISTORTING EXCESSIVELY.
   ELEMENT D16W5-1.1189 IS DISTORTING EXCESSIVELY.
   ELEMENT D16W5-1.1624 IS DISTORTING EXCESSIVELY.
   ELEMENT D16W5-1.2194 IS DISTORTING EXCESSIVELY.
   ELEMENT D16W5-1.2195 IS DISTORTING EXCESSIVELY.
   ELEMENT D16W5-1.2195 IS DISTORTING EXCESSIVELY.
   ELEMENT D16W5-1.2737 IS DISTORTING EXCESSIVELY.
   ELEMENT D16W5-1.2737 IS DISTORTING EXCESSIVELY.
   ELEMENT D16W5-1.3105 IS DISTORTING EXCESSIVELY.
   ELEMENT D16W5-1.3106 IS DISTORTING EXCESSIVELY.
   ELEMENT D16W5-1.3106 IS DISTORTING EXCESSIVELY.
   ELEMENT D16W5-1.3472 IS DISTORTING EXCESSIVELY.
   ELEMENT D16W5-1.3472 IS DISTORTING EXCESSIVELY.
   ELEMENT D16W5-1.3826 IS DISTORTING EXCESSIVELY.
   ELEMENT D16W5-1.3826 IS DISTORTING EXCESSIVELY.
   ELEMENT D16W5-1.3930 IS DISTORTING EXCESSIVELY.
   ELEMENT D16W5-1.3930 IS DISTORTING EXCESSIVELY.
   ELEMENT D16W5-1.3930 IS DISTORTING EXCESSIVELY.
   ELEMENT D16W5-1.4635 IS DISTORTING EXCESSIVELY.
   ELEMENT D16W5-1.4635 IS DISTORTING EXCESSIVELY.
   ELEMENT D16W5-1.4635 IS DISTORTING EXCESSIVELY.
   ELEMENT D16W5-1.5218 IS DISTORTING EXCESSIVELY.
   ELEMENT D16W5-1.5218 IS DISTORTING EXCESSIVELY.
   ELEMENT D16W5-1.5527 IS DISTORTING EXCESSIVELY.
   ELEMENT D16W5-1.5601 IS DISTORTING EXCESSIVELY.
   ELEMENT D16W5-1.5601 IS DISTORTING EXCESSIVELY.
   ELEMENT D16W5-1.6019 IS DISTORTING EXCESSIVELY.
   ELEMENT D16W5-1.6505 IS DISTORTING EXCESSIVELY.
   ELEMENT D16W5-1.6505 IS DISTORTING EXCESSIVELY.
   ELEMENT D16W5-1.6505 IS DISTORTING EXCESSIVELY.
   ELEMENT D16W5-1.6591 IS DISTORTING EXCESSIVELY.
   ELEMENT D16W5-1.6591 IS DISTORTING EXCESSIVELY.
   ELEMENT D16W5-1.6591 IS DISTORTING EXCESSIVELY.
   ELEMENT D16W5-1.6961 IS DISTORTING EXCESSIVELY.
   ELEMENT D16W5-1.7082 IS DISTORTING EXCESSIVELY.
   ELEMENT D16W5-1.7213 IS DISTORTING EXCESSIVELY.
   ELEMENT D16W5-1.7458 IS DISTORTING EXCESSIVELY.
   ELEMENT D16W5-1.7458 IS DISTORTING EXCESSIVELY.
   ELEMENT D16W5-1.7458 IS DISTORTING EXCESSIVELY.
   ELEMENT D16W5-1.7459 IS DISTORTING EXCESSIVELY.
   ELEMENT D16W5-1.7459 IS DISTORTING EXCESSIVELY.
   ELEMENT D16W5-1.7464 IS DISTORTING EXCESSIVELY.
   ELEMENT D16W5-1.7662 IS DISTORTING EXCESSIVELY.
   ELEMENT D16W5-1.7662 IS DISTORTING EXCESSIVELY.
   ELEMENT D16W5-1.7715 IS DISTORTING EXCESSIVELY.
   ELEMENT D16W5-1.7715 IS DISTORTING EXCESSIVELY.
   ELEMENT D16W5-1.7718 IS DISTORTING EXCESSIVELY.
   ELEMENT D16W5-1.7718 IS DISTORTING EXCESSIVELY.
   ELEMENT D16W5-1.8300 IS DISTORTING EXCESSIVELY.
   ELEMENT D16W5-1.8300 IS DISTORTING EXCESSIVELY.
   ELEMENT D16W5-1.8532 IS DISTORTING EXCESSIVELY.
   ELEMENT D16W5-1.8673 IS DISTORTING EXCESSIVELY.
   ELEMENT D16W5-1.8673 IS DISTORTING EXCESSIVELY.
   ELEMENT D16W5-1.8678 IS DISTORTING EXCESSIVELY.
   ELEMENT D16W5-1.8678 IS DISTORTING EXCESSIVELY.
   ELEMENT D16W5-1.8679 IS DISTORTING EXCESSIVELY.
   ELEMENT D16W5-1.8900 IS DISTORTING EXCESSIVELY.
   ELEMENT D16W5-1.8900 IS DISTORTING EXCESSIVELY.
   ELEMENT D16W5-1.8900 IS DISTORTING EXCESSIVELY.
   ELEMENT D16W5-1.9011 IS DISTORTING EXCESSIVELY.
   ELEMENT D16W5-1.9011 IS DISTORTING EXCESSIVELY.
   ELEMENT D16W5-1.9011 IS DISTORTING EXCESSIVELY.
   ELEMENT D16W5-1.9013 IS DISTORTING EXCESSIVELY.
   ELEMENT D16W5-1.9013 IS DISTORTING EXCESSIVELY.
   ELEMENT D16W5-1.9192 IS DISTORTING EXCESSIVELY.
   ELEMENT D16W5-1.9192 IS DISTORTING EXCESSIVELY.
   ELEMENT D16W5-1.9192 IS DISTORTING EXCESSIVELY.
   ELEMENT D16W5-1.9339 IS DISTORTING EXCESSIVELY.
   ELEMENT D16W5-1.9377 IS DISTORTING EXCESSIVELY.
   ELEMENT D16W5-1.9377 IS DISTORTING EXCESSIVELY.
   ELEMENT D16W5-1.9452 IS DISTORTING EXCESSIVELY.
   ELEMENT D16W5-1.9452 IS DISTORTING EXCESSIVELY.
   ELEMENT D16W5-1.9452 IS DISTORTING EXCESSIVELY.
   ELEMENT D16W5-1.9566 IS DISTORTING EXCESSIVELY.
   ELEMENT D16W5-1.9566 IS DISTORTING EXCESSIVELY.
   ELEMENT D16W5-1.9641 IS DISTORTING EXCESSIVELY.
   ELEMENT D16W5-1.9641 IS DISTORTING EXCESSIVELY.
   ELEMENT D16W5-1.9641 IS DISTORTING EXCESSIVELY.
   ELEMENT D16W5-1.10094 IS DISTORTING EXCESSIVELY.
   ELEMENT D16W5-1.10094 IS DISTORTING EXCESSIVELY.
   ELEMENT D16W5-1.10307 IS DISTORTING EXCESSIVELY.
   ELEMENT D16W5-1.10389 IS DISTORTING EXCESSIVELY.
   ELEMENT D16W5-1.10389 IS DISTORTING EXCESSIVELY.
   ELEMENT D16W5-1.10389 IS DISTORTING EXCESSIVELY.
   ELEMENT D16W5-1.10542 IS DISTORTING EXCESSIVELY.
   ELEMENT D16W5-1.10542 IS DISTORTING EXCESSIVELY.
   ELEMENT D16W5-1.10618 IS DISTORTING EXCESSIVELY.
   ELEMENT D16W5-1.10709 IS DISTORTING EXCESSIVELY.
   ELEMENT D16W5-1.10709 IS DISTORTING EXCESSIVELY.
   ELEMENT D16W5-1.10710 IS DISTORTING EXCESSIVELY.
   ELEMENT D16W5-1.10710 IS DISTORTING EXCESSIVELY.
   ELEMENT D16W5-1.10910 IS DISTORTING EXCESSIVELY.
   ELEMENT D16W5-1.10910 IS DISTORTING EXCESSIVELY.
   ELEMENT D16W5-1.10910 IS DISTORTING EXCESSIVELY.
   ELEMENT D16W5-1.11114 IS DISTORTING EXCESSIVELY.
   ELEMENT D16W5-1.11114 IS DISTORTING EXCESSIVELY.
   ELEMENT D16W5-1.11114 IS DISTORTING EXCESSIVELY.
   ELEMENT D16W5-1.11120 IS DISTORTING EXCESSIVELY.
   ELEMENT D16W5-1.11120 IS DISTORTING EXCESSIVELY.
   ELEMENT D16W5-1.11120 IS DISTORTING EXCESSIVELY.
   ELEMENT D16W5-1.11281 IS DISTORTING EXCESSIVELY.
   ELEMENT D16W5-1.11281 IS DISTORTING EXCESSIVELY.
   ELEMENT D16W5-1.11283 IS DISTORTING EXCESSIVELY.
   ELEMENT D16W5-1.11287 IS DISTORTING EXCESSIVELY.
   ELEMENT D16W5-1.11288 IS DISTORTING EXCESSIVELY.
   ELEMENT D16W5-1.11410 IS DISTORTING EXCESSIVELY.
   ELEMENT D16W5-1.11410 IS DISTORTING EXCESSIVELY.
   ELEMENT D16W5-1.11604 IS DISTORTING EXCESSIVELY.
   ELEMENT D16W5-1.11604 IS DISTORTING EXCESSIVELY.
   ELEMENT D16W5-1.11604 IS DISTORTING EXCESSIVELY.
   ELEMENT D16W5-1.11608 IS DISTORTING EXCESSIVELY.
   ELEMENT D16W5-1.11608 IS DISTORTING EXCESSIVELY.
   ELEMENT D16W5-1.11608 IS DISTORTING EXCESSIVELY.
   ELEMENT D16W5-1.11799 IS DISTORTING EXCESSIVELY.
   ELEMENT D16W5-1.11799 IS DISTORTING EXCESSIVELY.
   ELEMENT D16W5-1.12092 IS DISTORTING EXCESSIVELY.
   ELEMENT D16W5-1.12092 IS DISTORTING EXCESSIVELY.
   ELEMENT D16W5-1.12092 IS DISTORTING EXCESSIVELY.
   ELEMENT D16W5-1.12843 IS DISTORTING EXCESSIVELY.
   ELEMENT D16W5-1.13205 IS DISTORTING EXCESSIVELY.
   ELEMENT D16W5-1.13275 IS DISTORTING EXCESSIVELY.
   ELEMENT D16W5-1.13275 IS DISTORTING EXCESSIVELY.
   ELEMENT D16W5-1.13275 IS DISTORTING EXCESSIVELY.
   ELEMENT D16W5-1.13686 IS DISTORTING EXCESSIVELY.
   ELEMENT D16W5-1.13686 IS DISTORTING EXCESSIVELY.
   ELEMENT D16W5-1.13686 IS DISTORTING EXCESSIVELY.
   ELEMENT D16W5-1.13688 IS DISTORTING EXCESSIVELY.
   ELEMENT D16W5-1.13688 IS DISTORTING EXCESSIVELY.
   ELEMENT D16W5-1.14068 IS DISTORTING EXCESSIVELY.
   ELEMENT D16W5-1.14120 IS DISTORTING EXCESSIVELY.
   ELEMENT D16W5-1.14120 IS DISTORTING EXCESSIVELY.
   ELEMENT D16W5-1.14120 IS DISTORTING EXCESSIVELY.
   ELEMENT D16W5-1.14554 IS DISTORTING EXCESSIVELY.
   ELEMENT D16W5-1.15675 IS DISTORTING EXCESSIVELY.
   ELEMENT D16W5-1.16153 IS DISTORTING EXCESSIVELY.
   ELEMENT D16W5-1.16757 IS DISTORTING EXCESSIVELY.
   ELEMENT D16W5-1.16757 IS DISTORTING EXCESSIVELY.
   ELEMENT D16W5-1.16873 IS DISTORTING EXCESSIVELY.
   ELEMENT D16W5-1.16873 IS DISTORTING EXCESSIVELY.
   ELEMENT D16W5-1.17371 IS DISTORTING EXCESSIVELY.
   ELEMENT D16W5-1.17371 IS DISTORTING EXCESSIVELY.
   ELEMENT D16W5-1.17889 IS DISTORTING EXCESSIVELY.
   ELEMENT D16W5-1.17889 IS DISTORTING EXCESSIVELY.
   ELEMENT D16W5-1.18069 IS DISTORTING EXCESSIVELY.
   ELEMENT D16W5-1.18069 IS DISTORTING EXCESSIVELY.
   ELEMENT D16W5-1.18072 IS DISTORTING EXCESSIVELY.
   ELEMENT D16W5-1.18072 IS DISTORTING EXCESSIVELY.
   ELEMENT D16W5-1.18421 IS DISTORTING EXCESSIVELY.
   ELEMENT D16W5-1.18421 IS DISTORTING EXCESSIVELY.
   ELEMENT D16W5-1.18421 IS DISTORTING EXCESSIVELY.
   ELEMENT D16W5-1.18643 IS DISTORTING EXCESSIVELY.
   ELEMENT D16W5-1.18643 IS DISTORTING EXCESSIVELY.
   ELEMENT D16W5-1.18645 IS DISTORTING EXCESSIVELY.
   ELEMENT D16W5-1.18645 IS DISTORTING EXCESSIVELY.
   ELEMENT D16W5-1.18647 IS DISTORTING EXCESSIVELY.
   ELEMENT D16W5-1.18647 IS DISTORTING EXCESSIVELY.
   ELEMENT D16W5-1.18647 IS DISTORTING EXCESSIVELY.
   ELEMENT D16W5-1.18647 IS DISTORTING EXCESSIVELY.
   ELEMENT D16W5-1.18648 IS DISTORTING EXCESSIVELY.
   ELEMENT D16W5-1.19658 IS DISTORTING EXCESSIVELY.
   ELEMENT D16W5-1.19658 IS DISTORTING EXCESSIVELY.
   ELEMENT D16W5-1.19658 IS DISTORTING EXCESSIVELY.
   ELEMENT D16W5-1.19849 IS DISTORTING EXCESSIVELY.
   ELEMENT D16W5-1.19850 IS DISTORTING EXCESSIVELY.
   ELEMENT D16W5-1.19855 IS DISTORTING EXCESSIVELY.
   ELEMENT D16W5-1.19855 IS DISTORTING EXCESSIVELY.
   ELEMENT D16W5-1.19855 IS DISTORTING EXCESSIVELY.
   ELEMENT D16W5-1.20592 IS DISTORTING EXCESSIVELY.
   ELEMENT D16W5-1.20832 IS DISTORTING EXCESSIVELY.
   ELEMENT D16W5-1.20832 IS DISTORTING EXCESSIVELY.
   ELEMENT D16W5-1.20832 IS DISTORTING EXCESSIVELY.
   ELEMENT D16W5-1.21485 IS DISTORTING EXCESSIVELY.
   ELEMENT D16W5-1.21485 IS DISTORTING EXCESSIVELY.
   ELEMENT D16W5-1.21485 IS DISTORTING EXCESSIVELY.
   ELEMENT D16W5-1.21997 IS DISTORTING EXCESSIVELY.
   ELEMENT D16W5-1.21997 IS DISTORTING EXCESSIVELY.
   ELEMENT D16W5-1.22230 IS DISTORTING EXCESSIVELY.
   ELEMENT D16W5-1.22322 IS DISTORTING EXCESSIVELY.
   ELEMENT D16W5-1.22322 IS DISTORTING EXCESSIVELY.
   ELEMENT D16W5-1.22322 IS DISTORTING EXCESSIVELY.
   ELEMENT D16W5-1.22734 IS DISTORTING EXCESSIVELY.
   ELEMENT D16W5-1.22933 IS DISTORTING EXCESSIVELY.
   ELEMENT D16W5-1.22933 IS DISTORTING EXCESSIVELY.
   ELEMENT D16W5-1.22933 IS DISTORTING EXCESSIVELY.
   ELEMENT D16W5-1.23134 IS DISTORTING EXCESSIVELY.
   ELEMENT D16W5-1.23134 IS DISTORTING EXCESSIVELY.
   ELEMENT D16W5-1.23134 IS DISTORTING EXCESSIVELY.
   ELEMENT D16W5-1.23276 IS DISTORTING EXCESSIVELY.
   ELEMENT D16W5-1.23276 IS DISTORTING EXCESSIVELY.
   ELEMENT D16W5-1.23276 IS DISTORTING EXCESSIVELY.
   ELEMENT D16W5-1.23477 IS DISTORTING EXCESSIVELY.
   ELEMENT D16W5-1.23477 IS DISTORTING EXCESSIVELY.
   ELEMENT D16W5-1.23654 IS DISTORTING EXCESSIVELY.
   ELEMENT D16W5-1.23746 IS DISTORTING EXCESSIVELY.
   ELEMENT D16W5-1.23746 IS DISTORTING EXCESSIVELY.
   ELEMENT D16W5-1.23746 IS DISTORTING EXCESSIVELY.
   ELEMENT D16W5-1.23746 IS DISTORTING EXCESSIVELY.
   ELEMENT D16W5-1.23748 IS DISTORTING EXCESSIVELY.
   ELEMENT D16W5-1.23748 IS DISTORTING EXCESSIVELY.
   ELEMENT D16W5-1.23749 IS DISTORTING EXCESSIVELY.
   ELEMENT D16W5-1.23749 IS DISTORTING EXCESSIVELY.
   ELEMENT D16W5-1.23749 IS DISTORTING EXCESSIVELY.
   ELEMENT D16W5-1.24111 IS DISTORTING EXCESSIVELY.
   ELEMENT D16W5-1.24111 IS DISTORTING EXCESSIVELY.
   ELEMENT D16W5-1.24111 IS DISTORTING EXCESSIVELY.
   ELEMENT D16W5-1.24111 IS DISTORTING EXCESSIVELY.
   ELEMENT D16W5-1.24353 IS DISTORTING EXCESSIVELY.
   ELEMENT D16W5-1.24354 IS DISTORTING EXCESSIVELY.
   ELEMENT D16W5-1.24354 IS DISTORTING EXCESSIVELY.
   ELEMENT D16W5-1.24354 IS DISTORTING EXCESSIVELY.
   ELEMENT D16W5-1.24355 IS DISTORTING EXCESSIVELY.
   ELEMENT D16W5-1.24355 IS DISTORTING EXCESSIVELY.
   ELEMENT D16W5-1.24355 IS DISTORTING EXCESSIVELY.
   ELEMENT D16W5-1.24609 IS DISTORTING EXCESSIVELY.
   ELEMENT D16W5-1.24638 IS DISTORTING EXCESSIVELY.
   ELEMENT D16W5-1.24638 IS DISTORTING EXCESSIVELY.
   ELEMENT D16W5-1.24638 IS DISTORTING EXCESSIVELY.
   ELEMENT D16W5-1.24639 IS DISTORTING EXCESSIVELY.
   ELEMENT D16W5-1.24639 IS DISTORTING EXCESSIVELY.
   ELEMENT D16W5-1.24639 IS DISTORTING EXCESSIVELY.
   ELEMENT D16W5-1.24858 IS DISTORTING EXCESSIVELY.
   ELEMENT D16W5-1.24858 IS DISTORTING EXCESSIVELY.
   ELEMENT D16W5-1.24861 IS DISTORTING EXCESSIVELY.
   ELEMENT D16W5-1.24861 IS DISTORTING EXCESSIVELY.
   ELEMENT D16W5-1.24861 IS DISTORTING EXCESSIVELY.
   ELEMENT D16W5-1.24864 IS DISTORTING EXCESSIVELY.
   ELEMENT D16W5-1.25357 IS DISTORTING EXCESSIVELY.
   ELEMENT D16W5-1.25357 IS DISTORTING EXCESSIVELY.
   ELEMENT D16W5-1.25457 IS DISTORTING EXCESSIVELY.
   ELEMENT D16W5-1.25559 IS DISTORTING EXCESSIVELY.
   ELEMENT D16W5-1.25559 IS DISTORTING EXCESSIVELY.
   ELEMENT D16W5-1.25559 IS DISTORTING EXCESSIVELY.
   ELEMENT D16W5-1.25559 IS DISTORTING EXCESSIVELY.
   ELEMENT D16W5-1.25844 IS DISTORTING EXCESSIVELY.
   ELEMENT D16W5-1.25844 IS DISTORTING EXCESSIVELY.
   ELEMENT D16W5-1.25844 IS DISTORTING EXCESSIVELY.
   ELEMENT D16W5-1.26117 IS DISTORTING EXCESSIVELY.
   ELEMENT D16W5-1.26117 IS DISTORTING EXCESSIVELY.
   ELEMENT D16W5-1.26233 IS DISTORTING EXCESSIVELY.
   ELEMENT D16W5-1.26233 IS DISTORTING EXCESSIVELY.
   ELEMENT D16W5-1.26233 IS DISTORTING EXCESSIVELY.
   ELEMENT D16W5-1.26591 IS DISTORTING EXCESSIVELY.
   ELEMENT D16W5-1.26591 IS DISTORTING EXCESSIVELY.
   ELEMENT D16W5-1.26591 IS DISTORTING EXCESSIVELY.
   ELEMENT D16W5-1.27012 IS DISTORTING EXCESSIVELY.
   ELEMENT D16W5-1.27012 IS DISTORTING EXCESSIVELY.
   ELEMENT D16W5-1.27372 IS DISTORTING EXCESSIVELY.
   ELEMENT D16W5-1.27418 IS DISTORTING EXCESSIVELY.
   ELEMENT D16W5-1.27418 IS DISTORTING EXCESSIVELY.
   ELEMENT D16W5-1.27418 IS DISTORTING EXCESSIVELY.
   ELEMENT D16W5-1.27421 IS DISTORTING EXCESSIVELY.
   ELEMENT D16W5-1.27421 IS DISTORTING EXCESSIVELY.
   ELEMENT D16W5-1.28124 IS DISTORTING EXCESSIVELY.
   ELEMENT D16W5-1.28124 IS DISTORTING EXCESSIVELY.
   ELEMENT D16W5-1.28381 IS DISTORTING EXCESSIVELY.
   ELEMENT D16W5-1.28476 IS DISTORTING EXCESSIVELY.
   ELEMENT D16W5-1.28961 IS DISTORTING EXCESSIVELY.
   ELEMENT D16W5-1.28961 IS DISTORTING EXCESSIVELY.
   ELEMENT D16W5-1.28961 IS DISTORTING EXCESSIVELY.
   ELEMENT D16W5-1.28963 IS DISTORTING EXCESSIVELY.
   ELEMENT D16W5-1.29387 IS DISTORTING EXCESSIVELY.
   ELEMENT D16W5-1.29387 IS DISTORTING EXCESSIVELY.
   ELEMENT D16W5-1.29387 IS DISTORTING EXCESSIVELY.
   ELEMENT D16W5-1.29389 IS DISTORTING EXCESSIVELY.
   ELEMENT D16W5-1.29389 IS DISTORTING EXCESSIVELY.
   ELEMENT D16W5-1.29389 IS DISTORTING EXCESSIVELY.
   ELEMENT D16W5-1.1327 IS DISTORTING EXCESSIVELY.
   ELEMENT D16W5-1.1327 IS DISTORTING EXCESSIVELY.
   ELEMENT D16W5-1.1510 IS DISTORTING EXCESSIVELY.
   ELEMENT D16W5-1.1832 IS DISTORTING EXCESSIVELY.
   ELEMENT D16W5-1.2043 IS DISTORTING EXCESSIVELY.
   ELEMENT D16W5-1.2043 IS DISTORTING EXCESSIVELY.
   ELEMENT D16W5-1.2594 IS DISTORTING EXCESSIVELY.
   ELEMENT D16W5-1.2594 IS DISTORTING EXCESSIVELY.
   ELEMENT D16W5-1.3161 IS DISTORTING EXCESSIVELY.
   ELEMENT D16W5-1.3163 IS DISTORTING EXCESSIVELY.
   ELEMENT D16W5-1.3163 IS DISTORTING EXCESSIVELY.
   ELEMENT D16W5-1.3166 IS DISTORTING EXCESSIVELY.
   ELEMENT D16W5-1.3166 IS DISTORTING EXCESSIVELY.
   ELEMENT D16W5-1.3167 IS DISTORTING EXCESSIVELY.
   ELEMENT D16W5-1.3167 IS DISTORTING EXCESSIVELY.
   ELEMENT D16W5-1.3928 IS DISTORTING EXCESSIVELY.
   ELEMENT D16W5-1.4161 IS DISTORTING EXCESSIVELY.
   ELEMENT D16W5-1.4161 IS DISTORTING EXCESSIVELY.
   ELEMENT D16W5-1.4161 IS DISTORTING EXCESSIVELY.
   ELEMENT D16W5-1.5116 IS DISTORTING EXCESSIVELY.
   ELEMENT D16W5-1.5568 IS DISTORTING EXCESSIVELY.
   ELEMENT D16W5-1.6753 IS DISTORTING EXCESSIVELY.
   ELEMENT D16W5-1.6858 IS DISTORTING EXCESSIVELY.
   ELEMENT D16W5-1.6858 IS DISTORTING EXCESSIVELY.
   ELEMENT D16W5-1.7059 IS DISTORTING EXCESSIVELY.
   ELEMENT D16W5-1.7233 IS DISTORTING EXCESSIVELY.
   ELEMENT D16W5-1.7233 IS DISTORTING EXCESSIVELY.
   ELEMENT D16W5-1.7233 IS DISTORTING EXCESSIVELY.
   ELEMENT D16W5-1.7240 IS DISTORTING EXCESSIVELY.
   ELEMENT D16W5-1.7240 IS DISTORTING EXCESSIVELY.
   ELEMENT D16W5-1.7538 IS DISTORTING EXCESSIVELY.
   ELEMENT D16W5-1.7589 IS DISTORTING EXCESSIVELY.
   ELEMENT D16W5-1.7590 IS DISTORTING EXCESSIVELY.
   ELEMENT D16W5-1.7590 IS DISTORTING EXCESSIVELY.
   ELEMENT D16W5-1.7592 IS DISTORTING EXCESSIVELY.
   ELEMENT D16W5-1.8005 IS DISTORTING EXCESSIVELY.
   ELEMENT D16W5-1.8281 IS DISTORTING EXCESSIVELY.
   ELEMENT D16W5-1.8281 IS DISTORTING EXCESSIVELY.
   ELEMENT D16W5-1.8281 IS DISTORTING EXCESSIVELY.
   ELEMENT D16W5-1.8622 IS DISTORTING EXCESSIVELY.
   ELEMENT D16W5-1.8687 IS DISTORTING EXCESSIVELY.
   ELEMENT D16W5-1.8687 IS DISTORTING EXCESSIVELY.
   ELEMENT D16W5-1.8828 IS DISTORTING EXCESSIVELY.
   ELEMENT D16W5-1.8828 IS DISTORTING EXCESSIVELY.
   ELEMENT D16W5-1.8828 IS DISTORTING EXCESSIVELY.
   ELEMENT D16W5-1.8922 IS DISTORTING EXCESSIVELY.
   ELEMENT D16W5-1.8922 IS DISTORTING EXCESSIVELY.
   ELEMENT D16W5-1.8928 IS DISTORTING EXCESSIVELY.
   ELEMENT D16W5-1.9062 IS DISTORTING EXCESSIVELY.
   ELEMENT D16W5-1.9062 IS DISTORTING EXCESSIVELY.
   ELEMENT D16W5-1.9149 IS DISTORTING EXCESSIVELY.
   ELEMENT D16W5-1.9149 IS DISTORTING EXCESSIVELY.
   ELEMENT D16W5-1.9149 IS DISTORTING EXCESSIVELY.
   ELEMENT D16W5-1.9152 IS DISTORTING EXCESSIVELY.
   ELEMENT D16W5-1.9152 IS DISTORTING EXCESSIVELY.
   ELEMENT D16W5-1.9152 IS DISTORTING EXCESSIVELY.
   ELEMENT D16W5-1.9386 IS DISTORTING EXCESSIVELY.
   ELEMENT D16W5-1.9433 IS DISTORTING EXCESSIVELY.
   ELEMENT D16W5-1.9433 IS DISTORTING EXCESSIVELY.
   ELEMENT D16W5-1.9433 IS DISTORTING EXCESSIVELY.
   ELEMENT D16W5-1.9548 IS DISTORTING EXCESSIVELY.
   ELEMENT D16W5-1.9552 IS DISTORTING EXCESSIVELY.
   ELEMENT D16W5-1.9598 IS DISTORTING EXCESSIVELY.
   ELEMENT D16W5-1.9598 IS DISTORTING EXCESSIVELY.
   ELEMENT D16W5-1.9599 IS DISTORTING EXCESSIVELY.
   ELEMENT D16W5-1.9599 IS DISTORTING EXCESSIVELY.
   ELEMENT D16W5-1.10185 IS DISTORTING EXCESSIVELY.
   ELEMENT D16W5-1.10185 IS DISTORTING EXCESSIVELY.
   ELEMENT D16W5-1.10358 IS DISTORTING EXCESSIVELY.
   ELEMENT D16W5-1.10358 IS DISTORTING EXCESSIVELY.
   ELEMENT D16W5-1.10358 IS DISTORTING EXCESSIVELY.
   ELEMENT D16W5-1.10516 IS DISTORTING EXCESSIVELY.
   ELEMENT D16W5-1.10588 IS DISTORTING EXCESSIVELY.
   ELEMENT D16W5-1.10589 IS DISTORTING EXCESSIVELY.
   ELEMENT D16W5-1.10589 IS DISTORTING EXCESSIVELY.
   ELEMENT D16W5-1.10589 IS DISTORTING EXCESSIVELY.
   ELEMENT D16W5-1.10754 IS DISTORTING EXCESSIVELY.
   ELEMENT D16W5-1.10791 IS DISTORTING EXCESSIVELY.
   ELEMENT D16W5-1.10791 IS DISTORTING EXCESSIVELY.
   ELEMENT D16W5-1.10791 IS DISTORTING EXCESSIVELY.
   ELEMENT D16W5-1.11075 IS DISTORTING EXCESSIVELY.
   ELEMENT D16W5-1.11075 IS DISTORTING EXCESSIVELY.
   ELEMENT D16W5-1.11075 IS DISTORTING EXCESSIVELY.
   ELEMENT D16W5-1.11195 IS DISTORTING EXCESSIVELY.
   ELEMENT D16W5-1.11195 IS DISTORTING EXCESSIVELY.
   ELEMENT D16W5-1.11195 IS DISTORTING EXCESSIVELY.
   ELEMENT D16W5-1.11195 IS DISTORTING EXCESSIVELY.
   ELEMENT D16W5-1.11198 IS DISTORTING EXCESSIVELY.
   ELEMENT D16W5-1.11198 IS DISTORTING EXCESSIVELY.
   ELEMENT D16W5-1.11198 IS DISTORTING EXCESSIVELY.
   ELEMENT D16W5-1.11198 IS DISTORTING EXCESSIVELY.
   ELEMENT D16W5-1.11402 IS DISTORTING EXCESSIVELY.
   ELEMENT D16W5-1.11402 IS DISTORTING EXCESSIVELY.
   ELEMENT D16W5-1.11402 IS DISTORTING EXCESSIVELY.
   ELEMENT D16W5-1.11617 IS DISTORTING EXCESSIVELY.
   ELEMENT D16W5-1.11663 IS DISTORTING EXCESSIVELY.
   ELEMENT D16W5-1.11664 IS DISTORTING EXCESSIVELY.
   ELEMENT D16W5-1.11724 IS DISTORTING EXCESSIVELY.
   ELEMENT D16W5-1.11724 IS DISTORTING EXCESSIVELY.
   ELEMENT D16W5-1.11782 IS DISTORTING EXCESSIVELY.
   ELEMENT D16W5-1.11782 IS DISTORTING EXCESSIVELY.
   ELEMENT D16W5-1.12313 IS DISTORTING EXCESSIVELY.
   ELEMENT D16W5-1.12313 IS DISTORTING EXCESSIVELY.
   ELEMENT D16W5-1.12313 IS DISTORTING EXCESSIVELY.
   ELEMENT D16W5-1.12315 IS DISTORTING EXCESSIVELY.
   ELEMENT D16W5-1.12315 IS DISTORTING EXCESSIVELY.
   ELEMENT D16W5-1.12316 IS DISTORTING EXCESSIVELY.
   ELEMENT D16W5-1.13186 IS DISTORTING EXCESSIVELY.
   ELEMENT D16W5-1.13244 IS DISTORTING EXCESSIVELY.
   ELEMENT D16W5-1.13362 IS DISTORTING EXCESSIVELY.
   ELEMENT D16W5-1.13362 IS DISTORTING EXCESSIVELY.
   ELEMENT D16W5-1.13733 IS DISTORTING EXCESSIVELY.
   ELEMENT D16W5-1.13733 IS DISTORTING EXCESSIVELY.
   ELEMENT D16W5-1.13733 IS DISTORTING EXCESSIVELY.
   ELEMENT D16W5-1.13862 IS DISTORTING EXCESSIVELY.
   ELEMENT D16W5-1.13966 IS DISTORTING EXCESSIVELY.
   ELEMENT D16W5-1.13966 IS DISTORTING EXCESSIVELY.
   ELEMENT D16W5-1.13966 IS DISTORTING EXCESSIVELY.
   ELEMENT D16W5-1.14451 IS DISTORTING EXCESSIVELY.
   ELEMENT D16W5-1.14451 IS DISTORTING EXCESSIVELY.
   ELEMENT D16W5-1.14782 IS DISTORTING EXCESSIVELY.
   ELEMENT D16W5-1.14782 IS DISTORTING EXCESSIVELY.
   ELEMENT D16W5-1.14782 IS DISTORTING EXCESSIVELY.
   ELEMENT D16W5-1.15084 IS DISTORTING EXCESSIVELY.
   ELEMENT D16W5-1.15084 IS DISTORTING EXCESSIVELY.
   ELEMENT D16W5-1.15604 IS DISTORTING EXCESSIVELY.
   ELEMENT D16W5-1.15608 IS DISTORTING EXCESSIVELY.
   ELEMENT D16W5-1.15608 IS DISTORTING EXCESSIVELY.
   ELEMENT D16W5-1.16390 IS DISTORTING EXCESSIVELY.
   ELEMENT D16W5-1.16390 IS DISTORTING EXCESSIVELY.
   ELEMENT D16W5-1.16390 IS DISTORTING EXCESSIVELY.
   ELEMENT D16W5-1.16801 IS DISTORTING EXCESSIVELY.
   ELEMENT D16W5-1.16801 IS DISTORTING EXCESSIVELY.
   ELEMENT D16W5-1.16942 IS DISTORTING EXCESSIVELY.
   ELEMENT D16W5-1.16942 IS DISTORTING EXCESSIVELY.
   ELEMENT D16W5-1.17963 IS DISTORTING EXCESSIVELY.
   ELEMENT D16W5-1.17963 IS DISTORTING EXCESSIVELY.
   ELEMENT D16W5-1.17963 IS DISTORTING EXCESSIVELY.
   ELEMENT D16W5-1.17965 IS DISTORTING EXCESSIVELY.
   ELEMENT D16W5-1.17965 IS DISTORTING EXCESSIVELY.
   ELEMENT D16W5-1.17968 IS DISTORTING EXCESSIVELY.
   ELEMENT D16W5-1.17968 IS DISTORTING EXCESSIVELY.
   ELEMENT D16W5-1.18568 IS DISTORTING EXCESSIVELY.
   ELEMENT D16W5-1.18568 IS DISTORTING EXCESSIVELY.
   ELEMENT D16W5-1.18698 IS DISTORTING EXCESSIVELY.
   ELEMENT D16W5-1.18698 IS DISTORTING EXCESSIVELY.
   ELEMENT D16W5-1.18698 IS DISTORTING EXCESSIVELY.
   ELEMENT D16W5-1.18698 IS DISTORTING EXCESSIVELY.
   ELEMENT D16W5-1.18703 IS DISTORTING EXCESSIVELY.
   ELEMENT D16W5-1.18703 IS DISTORTING EXCESSIVELY.
   ELEMENT D16W5-1.19364 IS DISTORTING EXCESSIVELY.
   ELEMENT D16W5-1.19364 IS DISTORTING EXCESSIVELY.
   ELEMENT D16W5-1.19364 IS DISTORTING EXCESSIVELY.
   ELEMENT D16W5-1.19676 IS DISTORTING EXCESSIVELY.
   ELEMENT D16W5-1.19676 IS DISTORTING EXCESSIVELY.
   ELEMENT D16W5-1.19676 IS DISTORTING EXCESSIVELY.
   ELEMENT D16W5-1.19881 IS DISTORTING EXCESSIVELY.
   ELEMENT D16W5-1.19885 IS DISTORTING EXCESSIVELY.
   ELEMENT D16W5-1.19885 IS DISTORTING EXCESSIVELY.
   ELEMENT D16W5-1.19885 IS DISTORTING EXCESSIVELY.
   ELEMENT D16W5-1.20431 IS DISTORTING EXCESSIVELY.
   ELEMENT D16W5-1.20431 IS DISTORTING EXCESSIVELY.
   ELEMENT D16W5-1.21280 IS DISTORTING EXCESSIVELY.
   ELEMENT D16W5-1.21280 IS DISTORTING EXCESSIVELY.
   ELEMENT D16W5-1.21280 IS DISTORTING EXCESSIVELY.
   ELEMENT D16W5-1.21280 IS DISTORTING EXCESSIVELY.
   ELEMENT D16W5-1.21874 IS DISTORTING EXCESSIVELY.
   ELEMENT D16W5-1.21874 IS DISTORTING EXCESSIVELY.
   ELEMENT D16W5-1.21874 IS DISTORTING EXCESSIVELY.
   ELEMENT D16W5-1.21880 IS DISTORTING EXCESSIVELY.
   ELEMENT D16W5-1.21880 IS DISTORTING EXCESSIVELY.
   ELEMENT D16W5-1.22530 IS DISTORTING EXCESSIVELY.
   ELEMENT D16W5-1.22530 IS DISTORTING EXCESSIVELY.
   ELEMENT D16W5-1.22727 IS DISTORTING EXCESSIVELY.
   ELEMENT D16W5-1.22727 IS DISTORTING EXCESSIVELY.
   ELEMENT D16W5-1.22971 IS DISTORTING EXCESSIVELY.
   ELEMENT D16W5-1.22971 IS DISTORTING EXCESSIVELY.
   ELEMENT D16W5-1.23116 IS DISTORTING EXCESSIVELY.
   ELEMENT D16W5-1.23116 IS DISTORTING EXCESSIVELY.
   ELEMENT D16W5-1.23117 IS DISTORTING EXCESSIVELY.
   ELEMENT D16W5-1.23266 IS DISTORTING EXCESSIVELY.
   ELEMENT D16W5-1.23266 IS DISTORTING EXCESSIVELY.
   ELEMENT D16W5-1.23383 IS DISTORTING EXCESSIVELY.
   ELEMENT D16W5-1.23383 IS DISTORTING EXCESSIVELY.
   ELEMENT D16W5-1.23383 IS DISTORTING EXCESSIVELY.
   ELEMENT D16W5-1.23642 IS DISTORTING EXCESSIVELY.
   ELEMENT D16W5-1.23706 IS DISTORTING EXCESSIVELY.
   ELEMENT D16W5-1.23852 IS DISTORTING EXCESSIVELY.
   ELEMENT D16W5-1.23854 IS DISTORTING EXCESSIVELY.
   ELEMENT D16W5-1.23854 IS DISTORTING EXCESSIVELY.
   ELEMENT D16W5-1.23854 IS DISTORTING EXCESSIVELY.
   ELEMENT D16W5-1.24009 IS DISTORTING EXCESSIVELY.
   ELEMENT D16W5-1.24009 IS DISTORTING EXCESSIVELY.
   ELEMENT D16W5-1.24012 IS DISTORTING EXCESSIVELY.
   ELEMENT D16W5-1.24014 IS DISTORTING EXCESSIVELY.
   ELEMENT D16W5-1.24016 IS DISTORTING EXCESSIVELY.
   ELEMENT D16W5-1.24016 IS DISTORTING EXCESSIVELY.
   ELEMENT D16W5-1.24220 IS DISTORTING EXCESSIVELY.
   ELEMENT D16W5-1.24326 IS DISTORTING EXCESSIVELY.
   ELEMENT D16W5-1.24362 IS DISTORTING EXCESSIVELY.
   ELEMENT D16W5-1.24362 IS DISTORTING EXCESSIVELY.
   ELEMENT D16W5-1.24362 IS DISTORTING EXCESSIVELY.
   ELEMENT D16W5-1.24463 IS DISTORTING EXCESSIVELY.
   ELEMENT D16W5-1.24464 IS DISTORTING EXCESSIVELY.
   ELEMENT D16W5-1.24464 IS DISTORTING EXCESSIVELY.
   ELEMENT D16W5-1.24602 IS DISTORTING EXCESSIVELY.
   ELEMENT D16W5-1.24602 IS DISTORTING EXCESSIVELY.
   ELEMENT D16W5-1.24603 IS DISTORTING EXCESSIVELY.
   ELEMENT D16W5-1.24603 IS DISTORTING EXCESSIVELY.
   ELEMENT D16W5-1.24603 IS DISTORTING EXCESSIVELY.
   ELEMENT D16W5-1.24605 IS DISTORTING EXCESSIVELY.
   ELEMENT D16W5-1.24605 IS DISTORTING EXCESSIVELY.
   ELEMENT D16W5-1.24605 IS DISTORTING EXCESSIVELY.
   ELEMENT D16W5-1.24605 IS DISTORTING EXCESSIVELY.
   ELEMENT D16W5-1.24996 IS DISTORTING EXCESSIVELY.
   ELEMENT D16W5-1.25028 IS DISTORTING EXCESSIVELY.
   ELEMENT D16W5-1.25028 IS DISTORTING EXCESSIVELY.
   ELEMENT D16W5-1.25207 IS DISTORTING EXCESSIVELY.
   ELEMENT D16W5-1.25207 IS DISTORTING EXCESSIVELY.
   ELEMENT D16W5-1.25386 IS DISTORTING EXCESSIVELY.
   ELEMENT D16W5-1.25386 IS DISTORTING EXCESSIVELY.
   ELEMENT D16W5-1.25386 IS DISTORTING EXCESSIVELY.
   ELEMENT D16W5-1.25547 IS DISTORTING EXCESSIVELY.
   ELEMENT D16W5-1.25547 IS DISTORTING EXCESSIVELY.
   ELEMENT D16W5-1.25552 IS DISTORTING EXCESSIVELY.
   ELEMENT D16W5-1.25552 IS DISTORTING EXCESSIVELY.
   ELEMENT D16W5-1.25552 IS DISTORTING EXCESSIVELY.
   ELEMENT D16W5-1.25977 IS DISTORTING EXCESSIVELY.
   ELEMENT D16W5-1.25977 IS DISTORTING EXCESSIVELY.
   ELEMENT D16W5-1.25994 IS DISTORTING EXCESSIVELY.
   ELEMENT D16W5-1.25994 IS DISTORTING EXCESSIVELY.
   ELEMENT D16W5-1.26217 IS DISTORTING EXCESSIVELY.
   ELEMENT D16W5-1.26217 IS DISTORTING EXCESSIVELY.
   ELEMENT D16W5-1.26217 IS DISTORTING EXCESSIVELY.
   ELEMENT D16W5-1.26615 IS DISTORTING EXCESSIVELY.
   ELEMENT D16W5-1.26615 IS DISTORTING EXCESSIVELY.
   ELEMENT D16W5-1.26615 IS DISTORTING EXCESSIVELY.
   ELEMENT D16W5-1.27064 IS DISTORTING EXCESSIVELY.
   ELEMENT D16W5-1.27064 IS DISTORTING EXCESSIVELY.
   ELEMENT D16W5-1.27064 IS DISTORTING EXCESSIVELY.
   ELEMENT D16W5-1.27444 IS DISTORTING EXCESSIVELY.
   ELEMENT D16W5-1.27740 IS DISTORTING EXCESSIVELY.
   ELEMENT D16W5-1.27740 IS DISTORTING EXCESSIVELY.
   ELEMENT D16W5-1.27740 IS DISTORTING EXCESSIVELY.
   ELEMENT D16W5-1.27740 IS DISTORTING EXCESSIVELY.
   ELEMENT D16W5-1.28231 IS DISTORTING EXCESSIVELY.
   ELEMENT D16W5-1.28231 IS DISTORTING EXCESSIVELY.
   ELEMENT D16W5-1.28231 IS DISTORTING EXCESSIVELY.
   ELEMENT D16W5-1.176 IS DISTORTING EXCESSIVELY.
   ELEMENT D16W5-1.176 IS DISTORTING EXCESSIVELY.
   ELEMENT D16W5-1.341 IS DISTORTING EXCESSIVELY.
   ELEMENT D16W5-1.1724 IS DISTORTING EXCESSIVELY.
   ELEMENT D16W5-1.1724 IS DISTORTING EXCESSIVELY.
   ELEMENT D16W5-1.1725 IS DISTORTING EXCESSIVELY.
   ELEMENT D16W5-1.2664 IS DISTORTING EXCESSIVELY.
   ELEMENT D16W5-1.2664 IS DISTORTING EXCESSIVELY.
   ELEMENT D16W5-1.2664 IS DISTORTING EXCESSIVELY.
   ELEMENT D16W5-1.3908 IS DISTORTING EXCESSIVELY.
   ELEMENT D16W5-1.3989 IS DISTORTING EXCESSIVELY.
   ELEMENT D16W5-1.3989 IS DISTORTING EXCESSIVELY.
   ELEMENT D16W5-1.4268 IS DISTORTING EXCESSIVELY.
   ELEMENT D16W5-1.4761 IS DISTORTING EXCESSIVELY.
   ELEMENT D16W5-1.4763 IS DISTORTING EXCESSIVELY.
   ELEMENT D16W5-1.4764 IS DISTORTING EXCESSIVELY.
   ELEMENT D16W5-1.4765 IS DISTORTING EXCESSIVELY.
   ELEMENT D16W5-1.5573 IS DISTORTING EXCESSIVELY.
   ELEMENT D16W5-1.5573 IS DISTORTING EXCESSIVELY.
   ELEMENT D16W5-1.6553 IS DISTORTING EXCESSIVELY.
   ELEMENT D16W5-1.6553 IS DISTORTING EXCESSIVELY.
   ELEMENT D16W5-1.6553 IS DISTORTING EXCESSIVELY.
   ELEMENT D16W5-1.6993 IS DISTORTING EXCESSIVELY.
   ELEMENT D16W5-1.7074 IS DISTORTING EXCESSIVELY.
   ELEMENT D16W5-1.7074 IS DISTORTING EXCESSIVELY.
   ELEMENT D16W5-1.7074 IS DISTORTING EXCESSIVELY.
   ELEMENT D16W5-1.7079 IS DISTORTING EXCESSIVELY.
   ELEMENT D16W5-1.7466 IS DISTORTING EXCESSIVELY.
   ELEMENT D16W5-1.7466 IS DISTORTING EXCESSIVELY.
   ELEMENT D16W5-1.7466 IS DISTORTING EXCESSIVELY.
   ELEMENT D16W5-1.7512 IS DISTORTING EXCESSIVELY.
   ELEMENT D16W5-1.7574 IS DISTORTING EXCESSIVELY.
   ELEMENT D16W5-1.7574 IS DISTORTING EXCESSIVELY.
   ELEMENT D16W5-1.7574 IS DISTORTING EXCESSIVELY.
   ELEMENT D16W5-1.7574 IS DISTORTING EXCESSIVELY.
   ELEMENT D16W5-1.7740 IS DISTORTING EXCESSIVELY.
   ELEMENT D16W5-1.7742 IS DISTORTING EXCESSIVELY.
   ELEMENT D16W5-1.7742 IS DISTORTING EXCESSIVELY.
   ELEMENT D16W5-1.7742 IS DISTORTING EXCESSIVELY.
   ELEMENT D16W5-1.8177 IS DISTORTING EXCESSIVELY.
   ELEMENT D16W5-1.8177 IS DISTORTING EXCESSIVELY.
   ELEMENT D16W5-1.8419 IS DISTORTING EXCESSIVELY.
   ELEMENT D16W5-1.8514 IS DISTORTING EXCESSIVELY.
   ELEMENT D16W5-1.8667 IS DISTORTING EXCESSIVELY.
   ELEMENT D16W5-1.8667 IS DISTORTING EXCESSIVELY.
   ELEMENT D16W5-1.8669 IS DISTORTING EXCESSIVELY.
   ELEMENT D16W5-1.8671 IS DISTORTING EXCESSIVELY.
   ELEMENT D16W5-1.8671 IS DISTORTING EXCESSIVELY.
   ELEMENT D16W5-1.8889 IS DISTORTING EXCESSIVELY.
   ELEMENT D16W5-1.8889 IS DISTORTING EXCESSIVELY.
   ELEMENT D16W5-1.8889 IS DISTORTING EXCESSIVELY.
   ELEMENT D16W5-1.9017 IS DISTORTING EXCESSIVELY.
   ELEMENT D16W5-1.9017 IS DISTORTING EXCESSIVELY.
   ELEMENT D16W5-1.9017 IS DISTORTING EXCESSIVELY.
   ELEMENT D16W5-1.9019 IS DISTORTING EXCESSIVELY.
   ELEMENT D16W5-1.9019 IS DISTORTING EXCESSIVELY.
   ELEMENT D16W5-1.9019 IS DISTORTING EXCESSIVELY.
   ELEMENT D16W5-1.9194 IS DISTORTING EXCESSIVELY.
   ELEMENT D16W5-1.9194 IS DISTORTING EXCESSIVELY.
   ELEMENT D16W5-1.9194 IS DISTORTING EXCESSIVELY.
   ELEMENT D16W5-1.9353 IS DISTORTING EXCESSIVELY.
   ELEMENT D16W5-1.9353 IS DISTORTING EXCESSIVELY.
   ELEMENT D16W5-1.9353 IS DISTORTING EXCESSIVELY.
   ELEMENT D16W5-1.9353 IS DISTORTING EXCESSIVELY.
   ELEMENT D16W5-1.9355 IS DISTORTING EXCESSIVELY.
   ELEMENT D16W5-1.9355 IS DISTORTING EXCESSIVELY.
   ELEMENT D16W5-1.9355 IS DISTORTING EXCESSIVELY.
   ELEMENT D16W5-1.9360 IS DISTORTING EXCESSIVELY.
   ELEMENT D16W5-1.9360 IS DISTORTING EXCESSIVELY.
   ELEMENT D16W5-1.9360 IS DISTORTING EXCESSIVELY.
   ELEMENT D16W5-1.9360 IS DISTORTING EXCESSIVELY.
   ELEMENT D16W5-1.10165 IS DISTORTING EXCESSIVELY.
   ELEMENT D16W5-1.10165 IS DISTORTING EXCESSIVELY.
   ELEMENT D16W5-1.10383 IS DISTORTING EXCESSIVELY.
   ELEMENT D16W5-1.10383 IS DISTORTING EXCESSIVELY.
   ELEMENT D16W5-1.10494 IS DISTORTING EXCESSIVELY.
   ELEMENT D16W5-1.10496 IS DISTORTING EXCESSIVELY.
   ELEMENT D16W5-1.10600 IS DISTORTING EXCESSIVELY.
   ELEMENT D16W5-1.10600 IS DISTORTING EXCESSIVELY.
   ELEMENT D16W5-1.10682 IS DISTORTING EXCESSIVELY.
   ELEMENT D16W5-1.10720 IS DISTORTING EXCESSIVELY.
   ELEMENT D16W5-1.10720 IS DISTORTING EXCESSIVELY.
   ELEMENT D16W5-1.10796 IS DISTORTING EXCESSIVELY.
   ELEMENT D16W5-1.10899 IS DISTORTING EXCESSIVELY.
   ELEMENT D16W5-1.10899 IS DISTORTING EXCESSIVELY.
   ELEMENT D16W5-1.10900 IS DISTORTING EXCESSIVELY.
   ELEMENT D16W5-1.11097 IS DISTORTING EXCESSIVELY.
   ELEMENT D16W5-1.11103 IS DISTORTING EXCESSIVELY.
   ELEMENT D16W5-1.11103 IS DISTORTING EXCESSIVELY.
   ELEMENT D16W5-1.11103 IS DISTORTING EXCESSIVELY.
   ELEMENT D16W5-1.11202 IS DISTORTING EXCESSIVELY.
   ELEMENT D16W5-1.11202 IS DISTORTING EXCESSIVELY.
   ELEMENT D16W5-1.11202 IS DISTORTING EXCESSIVELY.
   ELEMENT D16W5-1.11289 IS DISTORTING EXCESSIVELY.
   ELEMENT D16W5-1.11289 IS DISTORTING EXCESSIVELY.
   ELEMENT D16W5-1.11289 IS DISTORTING EXCESSIVELY.
   ELEMENT D16W5-1.11292 IS DISTORTING EXCESSIVELY.
   ELEMENT D16W5-1.11292 IS DISTORTING EXCESSIVELY.
   ELEMENT D16W5-1.11292 IS DISTORTING EXCESSIVELY.
   ELEMENT D16W5-1.11292 IS DISTORTING EXCESSIVELY.
   ELEMENT D16W5-1.11611 IS DISTORTING EXCESSIVELY.
   ELEMENT D16W5-1.11611 IS DISTORTING EXCESSIVELY.
   ELEMENT D16W5-1.11613 IS DISTORTING EXCESSIVELY.
   ELEMENT D16W5-1.11613 IS DISTORTING EXCESSIVELY.
   ELEMENT D16W5-1.11613 IS DISTORTING EXCESSIVELY.
   ELEMENT D16W5-1.11767 IS DISTORTING EXCESSIVELY.
   ELEMENT D16W5-1.11768 IS DISTORTING EXCESSIVELY.
   ELEMENT D16W5-1.11820 IS DISTORTING EXCESSIVELY.
   ELEMENT D16W5-1.11820 IS DISTORTING EXCESSIVELY.
   ELEMENT D16W5-1.11820 IS DISTORTING EXCESSIVELY.
   ELEMENT D16W5-1.11824 IS DISTORTING EXCESSIVELY.
   ELEMENT D16W5-1.11824 IS DISTORTING EXCESSIVELY.
   ELEMENT D16W5-1.11824 IS DISTORTING EXCESSIVELY.
   ELEMENT D16W5-1.12556 IS DISTORTING EXCESSIVELY.
   ELEMENT D16W5-1.13044 IS DISTORTING EXCESSIVELY.
   ELEMENT D16W5-1.13044 IS DISTORTING EXCESSIVELY.
   ELEMENT D16W5-1.13514 IS DISTORTING EXCESSIVELY.
   ELEMENT D16W5-1.13514 IS DISTORTING EXCESSIVELY.
   ELEMENT D16W5-1.13517 IS DISTORTING EXCESSIVELY.
   ELEMENT D16W5-1.13517 IS DISTORTING EXCESSIVELY.
   ELEMENT D16W5-1.13517 IS DISTORTING EXCESSIVELY.
   ELEMENT D16W5-1.13985 IS DISTORTING EXCESSIVELY.
   ELEMENT D16W5-1.13985 IS DISTORTING EXCESSIVELY.
   ELEMENT D16W5-1.13985 IS DISTORTING EXCESSIVELY.
   ELEMENT D16W5-1.14316 IS DISTORTING EXCESSIVELY.
   ELEMENT D16W5-1.15980 IS DISTORTING EXCESSIVELY.
   ELEMENT D16W5-1.15980 IS DISTORTING EXCESSIVELY.
   ELEMENT D16W5-1.16604 IS DISTORTING EXCESSIVELY.
   ELEMENT D16W5-1.16604 IS DISTORTING EXCESSIVELY.
   ELEMENT D16W5-1.16605 IS DISTORTING EXCESSIVELY.
   ELEMENT D16W5-1.16605 IS DISTORTING EXCESSIVELY.
   ELEMENT D16W5-1.17993 IS DISTORTING EXCESSIVELY.
   ELEMENT D16W5-1.17993 IS DISTORTING EXCESSIVELY.
   ELEMENT D16W5-1.18127 IS DISTORTING EXCESSIVELY.
   ELEMENT D16W5-1.18127 IS DISTORTING EXCESSIVELY.
   ELEMENT D16W5-1.18127 IS DISTORTING EXCESSIVELY.
   ELEMENT D16W5-1.18377 IS DISTORTING EXCESSIVELY.
   ELEMENT D16W5-1.18377 IS DISTORTING EXCESSIVELY.
   ELEMENT D16W5-1.18377 IS DISTORTING EXCESSIVELY.
   ELEMENT D16W5-1.18617 IS DISTORTING EXCESSIVELY.
   ELEMENT D16W5-1.18617 IS DISTORTING EXCESSIVELY.
   ELEMENT D16W5-1.18617 IS DISTORTING EXCESSIVELY.
   ELEMENT D16W5-1.18617 IS DISTORTING EXCESSIVELY.
   ELEMENT D16W5-1.19155 IS DISTORTING EXCESSIVELY.
   ELEMENT D16W5-1.19155 IS DISTORTING EXCESSIVELY.
   ELEMENT D16W5-1.19155 IS DISTORTING EXCESSIVELY.
   ELEMENT D16W5-1.19158 IS DISTORTING EXCESSIVELY.
   ELEMENT D16W5-1.19158 IS DISTORTING EXCESSIVELY.
   ELEMENT D16W5-1.19158 IS DISTORTING EXCESSIVELY.
   ELEMENT D16W5-1.19785 IS DISTORTING EXCESSIVELY.
   ELEMENT D16W5-1.19785 IS DISTORTING EXCESSIVELY.
   ELEMENT D16W5-1.19791 IS DISTORTING EXCESSIVELY.
   ELEMENT D16W5-1.19946 IS DISTORTING EXCESSIVELY.
   ELEMENT D16W5-1.19950 IS DISTORTING EXCESSIVELY.
   ELEMENT D16W5-1.19950 IS DISTORTING EXCESSIVELY.
   ELEMENT D16W5-1.20090 IS DISTORTING EXCESSIVELY.
   ELEMENT D16W5-1.20130 IS DISTORTING EXCESSIVELY.
   ELEMENT D16W5-1.20130 IS DISTORTING EXCESSIVELY.
   ELEMENT D16W5-1.21347 IS DISTORTING EXCESSIVELY.
   ELEMENT D16W5-1.21347 IS DISTORTING EXCESSIVELY.
   ELEMENT D16W5-1.21654 IS DISTORTING EXCESSIVELY.
   ELEMENT D16W5-1.21654 IS DISTORTING EXCESSIVELY.
   ELEMENT D16W5-1.21654 IS DISTORTING EXCESSIVELY.
   ELEMENT D16W5-1.22096 IS DISTORTING EXCESSIVELY.
   ELEMENT D16W5-1.22096 IS DISTORTING EXCESSIVELY.
   ELEMENT D16W5-1.22096 IS DISTORTING EXCESSIVELY.
   ELEMENT D16W5-1.22344 IS DISTORTING EXCESSIVELY.
   ELEMENT D16W5-1.22580 IS DISTORTING EXCESSIVELY.
   ELEMENT D16W5-1.22580 IS DISTORTING EXCESSIVELY.
   ELEMENT D16W5-1.22786 IS DISTORTING EXCESSIVELY.
   ELEMENT D16W5-1.22786 IS DISTORTING EXCESSIVELY.
   ELEMENT D16W5-1.22786 IS DISTORTING EXCESSIVELY.
   ELEMENT D16W5-1.23062 IS DISTORTING EXCESSIVELY.
   ELEMENT D16W5-1.23147 IS DISTORTING EXCESSIVELY.
   ELEMENT D16W5-1.23147 IS DISTORTING EXCESSIVELY.
   ELEMENT D16W5-1.23147 IS DISTORTING EXCESSIVELY.
   ELEMENT D16W5-1.23340 IS DISTORTING EXCESSIVELY.
   ELEMENT D16W5-1.23340 IS DISTORTING EXCESSIVELY.
   ELEMENT D16W5-1.23390 IS DISTORTING EXCESSIVELY.
   ELEMENT D16W5-1.23390 IS DISTORTING EXCESSIVELY.
   ELEMENT D16W5-1.23390 IS DISTORTING EXCESSIVELY.
   ELEMENT D16W5-1.23759 IS DISTORTING EXCESSIVELY.
   ELEMENT D16W5-1.23759 IS DISTORTING EXCESSIVELY.
   ELEMENT D16W5-1.23759 IS DISTORTING EXCESSIVELY.
   ELEMENT D16W5-1.23989 IS DISTORTING EXCESSIVELY.
   ELEMENT D16W5-1.23989 IS DISTORTING EXCESSIVELY.
   ELEMENT D16W5-1.23989 IS DISTORTING EXCESSIVELY.
   ELEMENT D16W5-1.23989 IS DISTORTING EXCESSIVELY.
   ELEMENT D16W5-1.24095 IS DISTORTING EXCESSIVELY.
   ELEMENT D16W5-1.24095 IS DISTORTING EXCESSIVELY.
   ELEMENT D16W5-1.24095 IS DISTORTING EXCESSIVELY.
   ELEMENT D16W5-1.24201 IS DISTORTING EXCESSIVELY.
   ELEMENT D16W5-1.24201 IS DISTORTING EXCESSIVELY.
   ELEMENT D16W5-1.24201 IS DISTORTING EXCESSIVELY.
   ELEMENT D16W5-1.24424 IS DISTORTING EXCESSIVELY.
   ELEMENT D16W5-1.24424 IS DISTORTING EXCESSIVELY.
   ELEMENT D16W5-1.24424 IS DISTORTING EXCESSIVELY.
   ELEMENT D16W5-1.24424 IS DISTORTING EXCESSIVELY.
   ELEMENT D16W5-1.24495 IS DISTORTING EXCESSIVELY.
   ELEMENT D16W5-1.24495 IS DISTORTING EXCESSIVELY.
   ELEMENT D16W5-1.24495 IS DISTORTING EXCESSIVELY.
   ELEMENT D16W5-1.24495 IS DISTORTING EXCESSIVELY.
   ELEMENT D16W5-1.24496 IS DISTORTING EXCESSIVELY.
   ELEMENT D16W5-1.24496 IS DISTORTING EXCESSIVELY.
   ELEMENT D16W5-1.24496 IS DISTORTING EXCESSIVELY.
   ELEMENT D16W5-1.24825 IS DISTORTING EXCESSIVELY.
   ELEMENT D16W5-1.24828 IS DISTORTING EXCESSIVELY.
   ELEMENT D16W5-1.24832 IS DISTORTING EXCESSIVELY.
   ELEMENT D16W5-1.24832 IS DISTORTING EXCESSIVELY.
   ELEMENT D16W5-1.25011 IS DISTORTING EXCESSIVELY.
   ELEMENT D16W5-1.25011 IS DISTORTING EXCESSIVELY.
   ELEMENT D16W5-1.25015 IS DISTORTING EXCESSIVELY.
   ELEMENT D16W5-1.25015 IS DISTORTING EXCESSIVELY.
   ELEMENT D16W5-1.25015 IS DISTORTING EXCESSIVELY.
   ELEMENT D16W5-1.25401 IS DISTORTING EXCESSIVELY.
   ELEMENT D16W5-1.25401 IS DISTORTING EXCESSIVELY.
   ELEMENT D16W5-1.25401 IS DISTORTING EXCESSIVELY.
   ELEMENT D16W5-1.25402 IS DISTORTING EXCESSIVELY.
   ELEMENT D16W5-1.25402 IS DISTORTING EXCESSIVELY.
   ELEMENT D16W5-1.25402 IS DISTORTING EXCESSIVELY.
   ELEMENT D16W5-1.25406 IS DISTORTING EXCESSIVELY.
   ELEMENT D16W5-1.25406 IS DISTORTING EXCESSIVELY.
   ELEMENT D16W5-1.25882 IS DISTORTING EXCESSIVELY.
   ELEMENT D16W5-1.25882 IS DISTORTING EXCESSIVELY.
   ELEMENT D16W5-1.25882 IS DISTORTING EXCESSIVELY.
   ELEMENT D16W5-1.26124 IS DISTORTING EXCESSIVELY.
   ELEMENT D16W5-1.26124 IS DISTORTING EXCESSIVELY.
   ELEMENT D16W5-1.26124 IS DISTORTING EXCESSIVELY.
   ELEMENT D16W5-1.26361 IS DISTORTING EXCESSIVELY.
   ELEMENT D16W5-1.26361 IS DISTORTING EXCESSIVELY.
   ELEMENT D16W5-1.26361 IS DISTORTING EXCESSIVELY.
   ELEMENT D16W5-1.26706 IS DISTORTING EXCESSIVELY.
   ELEMENT D16W5-1.26961 IS DISTORTING EXCESSIVELY.
   ELEMENT D16W5-1.27204 IS DISTORTING EXCESSIVELY.
   ELEMENT D16W5-1.27378 IS DISTORTING EXCESSIVELY.
   ELEMENT D16W5-1.27435 IS DISTORTING EXCESSIVELY.
   ELEMENT D16W5-1.27748 IS DISTORTING EXCESSIVELY.
   ELEMENT D16W5-1.27748 IS DISTORTING EXCESSIVELY.
   ELEMENT D16W5-1.27948 IS DISTORTING EXCESSIVELY.
   ELEMENT D16W5-1.27948 IS DISTORTING EXCESSIVELY.
   ELEMENT D16W5-1.27948 IS DISTORTING EXCESSIVELY.
   ELEMENT D16W5-1.28318 IS DISTORTING EXCESSIVELY.
   ELEMENT D16W5-1.28318 IS DISTORTING EXCESSIVELY.
   ELEMENT D16W5-1.29317 IS DISTORTING EXCESSIVELY.
   ELEMENT D16W5-1.1042 IS DISTORTING EXCESSIVELY.
   ELEMENT D16W5-1.1042 IS DISTORTING EXCESSIVELY.
   ELEMENT D16W5-1.1042 IS DISTORTING EXCESSIVELY.
   ELEMENT D16W5-1.1042 IS DISTORTING EXCESSIVELY.
   ELEMENT D16W5-1.1177 IS DISTORTING EXCESSIVELY.
   ELEMENT D16W5-1.1177 IS DISTORTING EXCESSIVELY.
   ELEMENT D16W5-1.1182 IS DISTORTING EXCESSIVELY.
   ELEMENT D16W5-1.1182 IS DISTORTING EXCESSIVELY.
   ELEMENT D16W5-1.2189 IS DISTORTING EXCESSIVELY.
   ELEMENT D16W5-1.2190 IS DISTORTING EXCESSIVELY.
   ELEMENT D16W5-1.2735 IS DISTORTING EXCESSIVELY.
   ELEMENT D16W5-1.2736 IS DISTORTING EXCESSIVELY.
   ELEMENT D16W5-1.3139 IS DISTORTING EXCESSIVELY.
   ELEMENT D16W5-1.3139 IS DISTORTING EXCESSIVELY.
   ELEMENT D16W5-1.3600 IS DISTORTING EXCESSIVELY.
   ELEMENT D16W5-1.3692 IS DISTORTING EXCESSIVELY.
   ELEMENT D16W5-1.3692 IS DISTORTING EXCESSIVELY.
   ELEMENT D16W5-1.3692 IS DISTORTING EXCESSIVELY.
   ELEMENT D16W5-1.4302 IS DISTORTING EXCESSIVELY.
   ELEMENT D16W5-1.4302 IS DISTORTING EXCESSIVELY.
   ELEMENT D16W5-1.5170 IS DISTORTING EXCESSIVELY.
   ELEMENT D16W5-1.5289 IS DISTORTING EXCESSIVELY.
   ELEMENT D16W5-1.5507 IS DISTORTING EXCESSIVELY.
   ELEMENT D16W5-1.5507 IS DISTORTING EXCESSIVELY.
   ELEMENT D16W5-1.5511 IS DISTORTING EXCESSIVELY.
   ELEMENT D16W5-1.5511 IS DISTORTING EXCESSIVELY.
   ELEMENT D16W5-1.5511 IS DISTORTING EXCESSIVELY.
   ELEMENT D16W5-1.6449 IS DISTORTING EXCESSIVELY.
   ELEMENT D16W5-1.6449 IS DISTORTING EXCESSIVELY.
   ELEMENT D16W5-1.6449 IS DISTORTING EXCESSIVELY.
   ELEMENT D16W5-1.6515 IS DISTORTING EXCESSIVELY.
   ELEMENT D16W5-1.6515 IS DISTORTING EXCESSIVELY.
   ELEMENT D16W5-1.6515 IS DISTORTING EXCESSIVELY.
   ELEMENT D16W5-1.6770 IS DISTORTING EXCESSIVELY.
   ELEMENT D16W5-1.6770 IS DISTORTING EXCESSIVELY.
   ELEMENT D16W5-1.6770 IS DISTORTING EXCESSIVELY.
   ELEMENT D16W5-1.7036 IS DISTORTING EXCESSIVELY.
   ELEMENT D16W5-1.7036 IS DISTORTING EXCESSIVELY.
   ELEMENT D16W5-1.7325 IS DISTORTING EXCESSIVELY.
   ELEMENT D16W5-1.7325 IS DISTORTING EXCESSIVELY.
   ELEMENT D16W5-1.7487 IS DISTORTING EXCESSIVELY.
   ELEMENT D16W5-1.7487 IS DISTORTING EXCESSIVELY.
   ELEMENT D16W5-1.7521 IS DISTORTING EXCESSIVELY.
   ELEMENT D16W5-1.7524 IS DISTORTING EXCESSIVELY.
   ELEMENT D16W5-1.7644 IS DISTORTING EXCESSIVELY.
   ELEMENT D16W5-1.7644 IS DISTORTING EXCESSIVELY.
   ELEMENT D16W5-1.7644 IS DISTORTING EXCESSIVELY.
   ELEMENT D16W5-1.7729 IS DISTORTING EXCESSIVELY.
   ELEMENT D16W5-1.7729 IS DISTORTING EXCESSIVELY.
   ELEMENT D16W5-1.7729 IS DISTORTING EXCESSIVELY.
   ELEMENT D16W5-1.7729 IS DISTORTING EXCESSIVELY.
   ELEMENT D16W5-1.8176 IS DISTORTING EXCESSIVELY.
   ELEMENT D16W5-1.8176 IS DISTORTING EXCESSIVELY.
   ELEMENT D16W5-1.8485 IS DISTORTING EXCESSIVELY.
   ELEMENT D16W5-1.8485 IS DISTORTING EXCESSIVELY.
   ELEMENT D16W5-1.8485 IS DISTORTING EXCESSIVELY.
   ELEMENT D16W5-1.8801 IS DISTORTING EXCESSIVELY.
   ELEMENT D16W5-1.8851 IS DISTORTING EXCESSIVELY.
   ELEMENT D16W5-1.8856 IS DISTORTING EXCESSIVELY.
   ELEMENT D16W5-1.8916 IS DISTORTING EXCESSIVELY.
   ELEMENT D16W5-1.8916 IS DISTORTING EXCESSIVELY.
   ELEMENT D16W5-1.8916 IS DISTORTING EXCESSIVELY.
   ELEMENT D16W5-1.8920 IS DISTORTING EXCESSIVELY.
   ELEMENT D16W5-1.8920 IS DISTORTING EXCESSIVELY.
   ELEMENT D16W5-1.8920 IS DISTORTING EXCESSIVELY.
   ELEMENT D16W5-1.9105 IS DISTORTING EXCESSIVELY.
   ELEMENT D16W5-1.9105 IS DISTORTING EXCESSIVELY.
   ELEMENT D16W5-1.9105 IS DISTORTING EXCESSIVELY.
   ELEMENT D16W5-1.9106 IS DISTORTING EXCESSIVELY.
   ELEMENT D16W5-1.9107 IS DISTORTING EXCESSIVELY.
   ELEMENT D16W5-1.9107 IS DISTORTING EXCESSIVELY.
   ELEMENT D16W5-1.9107 IS DISTORTING EXCESSIVELY.
   ELEMENT D16W5-1.9413 IS DISTORTING EXCESSIVELY.
   ELEMENT D16W5-1.9413 IS DISTORTING EXCESSIVELY.
   ELEMENT D16W5-1.9413 IS DISTORTING EXCESSIVELY.
   ELEMENT D16W5-1.9471 IS DISTORTING EXCESSIVELY.
   ELEMENT D16W5-1.9471 IS DISTORTING EXCESSIVELY.
   ELEMENT D16W5-1.9471 IS DISTORTING EXCESSIVELY.
   ELEMENT D16W5-1.9580 IS DISTORTING EXCESSIVELY.
   ELEMENT D16W5-1.9680 IS DISTORTING EXCESSIVELY.
   ELEMENT D16W5-1.9680 IS DISTORTING EXCESSIVELY.
   ELEMENT D16W5-1.9680 IS DISTORTING EXCESSIVELY.
   ELEMENT D16W5-1.10144 IS DISTORTING EXCESSIVELY.
   ELEMENT D16W5-1.10144 IS DISTORTING EXCESSIVELY.
   ELEMENT D16W5-1.10323 IS DISTORTING EXCESSIVELY.
   ELEMENT D16W5-1.10323 IS DISTORTING EXCESSIVELY.
   ELEMENT D16W5-1.10412 IS DISTORTING EXCESSIVELY.
   ELEMENT D16W5-1.10533 IS DISTORTING EXCESSIVELY.
   ELEMENT D16W5-1.10533 IS DISTORTING EXCESSIVELY.
   ELEMENT D16W5-1.10534 IS DISTORTING EXCESSIVELY.
   ELEMENT D16W5-1.10628 IS DISTORTING EXCESSIVELY.
   ELEMENT D16W5-1.10628 IS DISTORTING EXCESSIVELY.
   ELEMENT D16W5-1.10631 IS DISTORTING EXCESSIVELY.
   ELEMENT D16W5-1.10776 IS DISTORTING EXCESSIVELY.
   ELEMENT D16W5-1.10804 IS DISTORTING EXCESSIVELY.
   ELEMENT D16W5-1.11008 IS DISTORTING EXCESSIVELY.
   ELEMENT D16W5-1.11008 IS DISTORTING EXCESSIVELY.
   ELEMENT D16W5-1.11135 IS DISTORTING EXCESSIVELY.
   ELEMENT D16W5-1.11171 IS DISTORTING EXCESSIVELY.
   ELEMENT D16W5-1.11171 IS DISTORTING EXCESSIVELY.
   ELEMENT D16W5-1.11171 IS DISTORTING EXCESSIVELY.
   ELEMENT D16W5-1.11219 IS DISTORTING EXCESSIVELY.
   ELEMENT D16W5-1.11219 IS DISTORTING EXCESSIVELY.
   ELEMENT D16W5-1.11219 IS DISTORTING EXCESSIVELY.
   ELEMENT D16W5-1.11306 IS DISTORTING EXCESSIVELY.
   ELEMENT D16W5-1.11306 IS DISTORTING EXCESSIVELY.
   ELEMENT D16W5-1.11365 IS DISTORTING EXCESSIVELY.
   ELEMENT D16W5-1.11433 IS DISTORTING EXCESSIVELY.
   ELEMENT D16W5-1.11509 IS DISTORTING EXCESSIVELY.
   ELEMENT D16W5-1.11509 IS DISTORTING EXCESSIVELY.
   ELEMENT D16W5-1.11509 IS DISTORTING EXCESSIVELY.
   ELEMENT D16W5-1.11686 IS DISTORTING EXCESSIVELY.
   ELEMENT D16W5-1.11686 IS DISTORTING EXCESSIVELY.
   ELEMENT D16W5-1.11747 IS DISTORTING EXCESSIVELY.
   ELEMENT D16W5-1.11747 IS DISTORTING EXCESSIVELY.
   ELEMENT D16W5-1.11747 IS DISTORTING EXCESSIVELY.
   ELEMENT D16W5-1.11897 IS DISTORTING EXCESSIVELY.
   ELEMENT D16W5-1.11897 IS DISTORTING EXCESSIVELY.
   ELEMENT D16W5-1.12166 IS DISTORTING EXCESSIVELY.
   ELEMENT D16W5-1.12167 IS DISTORTING EXCESSIVELY.
   ELEMENT D16W5-1.12167 IS DISTORTING EXCESSIVELY.
   ELEMENT D16W5-1.12168 IS DISTORTING EXCESSIVELY.
   ELEMENT D16W5-1.12168 IS DISTORTING EXCESSIVELY.
   ELEMENT D16W5-1.12750 IS DISTORTING EXCESSIVELY.
   ELEMENT D16W5-1.12750 IS DISTORTING EXCESSIVELY.
   ELEMENT D16W5-1.13170 IS DISTORTING EXCESSIVELY.
   ELEMENT D16W5-1.13170 IS DISTORTING EXCESSIVELY.
   ELEMENT D16W5-1.13171 IS DISTORTING EXCESSIVELY.
   ELEMENT D16W5-1.13171 IS DISTORTING EXCESSIVELY.
   ELEMENT D16W5-1.13646 IS DISTORTING EXCESSIVELY.
   ELEMENT D16W5-1.13646 IS DISTORTING EXCESSIVELY.
   ELEMENT D16W5-1.13806 IS DISTORTING EXCESSIVELY.
   ELEMENT D16W5-1.13806 IS DISTORTING EXCESSIVELY.
   ELEMENT D16W5-1.13806 IS DISTORTING EXCESSIVELY.
   ELEMENT D16W5-1.14078 IS DISTORTING EXCESSIVELY.
   ELEMENT D16W5-1.14078 IS DISTORTING EXCESSIVELY.
   ELEMENT D16W5-1.14136 IS DISTORTING EXCESSIVELY.
   ELEMENT D16W5-1.14412 IS DISTORTING EXCESSIVELY.
   ELEMENT D16W5-1.14412 IS DISTORTING EXCESSIVELY.
   ELEMENT D16W5-1.14667 IS DISTORTING EXCESSIVELY.
   ELEMENT D16W5-1.14667 IS DISTORTING EXCESSIVELY.
   ELEMENT D16W5-1.14667 IS DISTORTING EXCESSIVELY.
   ELEMENT D16W5-1.16393 IS DISTORTING EXCESSIVELY.
   ELEMENT D16W5-1.16393 IS DISTORTING EXCESSIVELY.
   ELEMENT D16W5-1.16396 IS DISTORTING EXCESSIVELY.
   ELEMENT D16W5-1.16396 IS DISTORTING EXCESSIVELY.
   ELEMENT D16W5-1.16397 IS DISTORTING EXCESSIVELY.
   ELEMENT D16W5-1.16932 IS DISTORTING EXCESSIVELY.
   ELEMENT D16W5-1.16936 IS DISTORTING EXCESSIVELY.
   ELEMENT D16W5-1.18041 IS DISTORTING EXCESSIVELY.
   ELEMENT D16W5-1.18041 IS DISTORTING EXCESSIVELY.
   ELEMENT D16W5-1.18136 IS DISTORTING EXCESSIVELY.
   ELEMENT D16W5-1.18354 IS DISTORTING EXCESSIVELY.
   ELEMENT D16W5-1.18430 IS DISTORTING EXCESSIVELY.
   ELEMENT D16W5-1.18430 IS DISTORTING EXCESSIVELY.
   ELEMENT D16W5-1.18430 IS DISTORTING EXCESSIVELY.
   ELEMENT D16W5-1.18696 IS DISTORTING EXCESSIVELY.
   ELEMENT D16W5-1.18696 IS DISTORTING EXCESSIVELY.
   ELEMENT D16W5-1.18904 IS DISTORTING EXCESSIVELY.
   ELEMENT D16W5-1.19267 IS DISTORTING EXCESSIVELY.
   ELEMENT D16W5-1.19267 IS DISTORTING EXCESSIVELY.
   ELEMENT D16W5-1.19267 IS DISTORTING EXCESSIVELY.
   ELEMENT D16W5-1.19438 IS DISTORTING EXCESSIVELY.
   ELEMENT D16W5-1.19783 IS DISTORTING EXCESSIVELY.
   ELEMENT D16W5-1.19802 IS DISTORTING EXCESSIVELY.
   ELEMENT D16W5-1.19805 IS DISTORTING EXCESSIVELY.
   ELEMENT D16W5-1.19805 IS DISTORTING EXCESSIVELY.
   ELEMENT D16W5-1.19805 IS DISTORTING EXCESSIVELY.
   ELEMENT D16W5-1.19806 IS DISTORTING EXCESSIVELY.
   ELEMENT D16W5-1.19806 IS DISTORTING EXCESSIVELY.
   ELEMENT D16W5-1.19806 IS DISTORTING EXCESSIVELY.
   ELEMENT D16W5-1.19807 IS DISTORTING EXCESSIVELY.
   ELEMENT D16W5-1.19807 IS DISTORTING EXCESSIVELY.
   ELEMENT D16W5-1.20464 IS DISTORTING EXCESSIVELY.
   ELEMENT D16W5-1.21324 IS DISTORTING EXCESSIVELY.
   ELEMENT D16W5-1.21324 IS DISTORTING EXCESSIVELY.
   ELEMENT D16W5-1.21324 IS DISTORTING EXCESSIVELY.
   ELEMENT D16W5-1.21700 IS DISTORTING EXCESSIVELY.
   ELEMENT D16W5-1.21700 IS DISTORTING EXCESSIVELY.
   ELEMENT D16W5-1.22015 IS DISTORTING EXCESSIVELY.
   ELEMENT D16W5-1.22195 IS DISTORTING EXCESSIVELY.
   ELEMENT D16W5-1.22195 IS DISTORTING EXCESSIVELY.
   ELEMENT D16W5-1.22452 IS DISTORTING EXCESSIVELY.
   ELEMENT D16W5-1.22452 IS DISTORTING EXCESSIVELY.
   ELEMENT D16W5-1.22753 IS DISTORTING EXCESSIVELY.
   ELEMENT D16W5-1.22959 IS DISTORTING EXCESSIVELY.
   ELEMENT D16W5-1.22959 IS DISTORTING EXCESSIVELY.
   ELEMENT D16W5-1.23109 IS DISTORTING EXCESSIVELY.
   ELEMENT D16W5-1.23109 IS DISTORTING EXCESSIVELY.
   ELEMENT D16W5-1.23109 IS DISTORTING EXCESSIVELY.
   ELEMENT D16W5-1.23263 IS DISTORTING EXCESSIVELY.
   ELEMENT D16W5-1.23263 IS DISTORTING EXCESSIVELY.
   ELEMENT D16W5-1.23263 IS DISTORTING EXCESSIVELY.
   ELEMENT D16W5-1.23494 IS DISTORTING EXCESSIVELY.
   ELEMENT D16W5-1.23605 IS DISTORTING EXCESSIVELY.
   ELEMENT D16W5-1.23605 IS DISTORTING EXCESSIVELY.
   ELEMENT D16W5-1.23605 IS DISTORTING EXCESSIVELY.
   ELEMENT D16W5-1.23882 IS DISTORTING EXCESSIVELY.
   ELEMENT D16W5-1.23972 IS DISTORTING EXCESSIVELY.
   ELEMENT D16W5-1.23972 IS DISTORTING EXCESSIVELY.
   ELEMENT D16W5-1.23972 IS DISTORTING EXCESSIVELY.
   ELEMENT D16W5-1.23974 IS DISTORTING EXCESSIVELY.
   ELEMENT D16W5-1.23974 IS DISTORTING EXCESSIVELY.
   ELEMENT D16W5-1.23974 IS DISTORTING EXCESSIVELY.
   ELEMENT D16W5-1.23976 IS DISTORTING EXCESSIVELY.
   ELEMENT D16W5-1.23976 IS DISTORTING EXCESSIVELY.
   ELEMENT D16W5-1.24210 IS DISTORTING EXCESSIVELY.
   ELEMENT D16W5-1.24334 IS DISTORTING EXCESSIVELY.
   ELEMENT D16W5-1.24334 IS DISTORTING EXCESSIVELY.
   ELEMENT D16W5-1.24335 IS DISTORTING EXCESSIVELY.
   ELEMENT D16W5-1.24440 IS DISTORTING EXCESSIVELY.
   ELEMENT D16W5-1.24477 IS DISTORTING EXCESSIVELY.
   ELEMENT D16W5-1.24477 IS DISTORTING EXCESSIVELY.
   ELEMENT D16W5-1.24478 IS DISTORTING EXCESSIVELY.
   ELEMENT D16W5-1.24478 IS DISTORTING EXCESSIVELY.
   ELEMENT D16W5-1.24478 IS DISTORTING EXCESSIVELY.
   ELEMENT D16W5-1.24478 IS DISTORTING EXCESSIVELY.
   ELEMENT D16W5-1.24715 IS DISTORTING EXCESSIVELY.
   ELEMENT D16W5-1.24715 IS DISTORTING EXCESSIVELY.
   ELEMENT D16W5-1.24804 IS DISTORTING EXCESSIVELY.
   ELEMENT D16W5-1.24805 IS DISTORTING EXCESSIVELY.
   ELEMENT D16W5-1.24872 IS DISTORTING EXCESSIVELY.
   ELEMENT D16W5-1.24977 IS DISTORTING EXCESSIVELY.
   ELEMENT D16W5-1.24977 IS DISTORTING EXCESSIVELY.
   ELEMENT D16W5-1.24979 IS DISTORTING EXCESSIVELY.
   ELEMENT D16W5-1.24979 IS DISTORTING EXCESSIVELY.
   ELEMENT D16W5-1.25234 IS DISTORTING EXCESSIVELY.
   ELEMENT D16W5-1.25234 IS DISTORTING EXCESSIVELY.
   ELEMENT D16W5-1.25238 IS DISTORTING EXCESSIVELY.
   ELEMENT D16W5-1.25238 IS DISTORTING EXCESSIVELY.
   ELEMENT D16W5-1.25238 IS DISTORTING EXCESSIVELY.
   ELEMENT D16W5-1.25598 IS DISTORTING EXCESSIVELY.
   ELEMENT D16W5-1.25598 IS DISTORTING EXCESSIVELY.
   ELEMENT D16W5-1.25598 IS DISTORTING EXCESSIVELY.
   ELEMENT D16W5-1.25727 IS DISTORTING EXCESSIVELY.
   ELEMENT D16W5-1.25727 IS DISTORTING EXCESSIVELY.
   ELEMENT D16W5-1.25958 IS DISTORTING EXCESSIVELY.
   ELEMENT D16W5-1.25958 IS DISTORTING EXCESSIVELY.
   ELEMENT D16W5-1.25958 IS DISTORTING EXCESSIVELY.
   ELEMENT D16W5-1.26134 IS DISTORTING EXCESSIVELY.
   ELEMENT D16W5-1.26134 IS DISTORTING EXCESSIVELY.
   ELEMENT D16W5-1.26267 IS DISTORTING EXCESSIVELY.
   ELEMENT D16W5-1.26379 IS DISTORTING EXCESSIVELY.
   ELEMENT D16W5-1.26381 IS DISTORTING EXCESSIVELY.
   ELEMENT D16W5-1.26381 IS DISTORTING EXCESSIVELY.
   ELEMENT D16W5-1.26381 IS DISTORTING EXCESSIVELY.
   ELEMENT D16W5-1.26832 IS DISTORTING EXCESSIVELY.
   ELEMENT D16W5-1.26832 IS DISTORTING EXCESSIVELY.
   ELEMENT D16W5-1.27185 IS DISTORTING EXCESSIVELY.
   ELEMENT D16W5-1.27185 IS DISTORTING EXCESSIVELY.
   ELEMENT D16W5-1.27185 IS DISTORTING EXCESSIVELY.
   ELEMENT D16W5-1.27186 IS DISTORTING EXCESSIVELY.
   ELEMENT D16W5-1.27192 IS DISTORTING EXCESSIVELY.
   ELEMENT D16W5-1.27192 IS DISTORTING EXCESSIVELY.
   ELEMENT D16W5-1.27998 IS DISTORTING EXCESSIVELY.
   ELEMENT D16W5-1.27998 IS DISTORTING EXCESSIVELY.
   ELEMENT D16W5-1.27998 IS DISTORTING EXCESSIVELY.
   ELEMENT D16W5-1.28376 IS DISTORTING EXCESSIVELY.
   ELEMENT D16W5-1.28376 IS DISTORTING EXCESSIVELY.
   ELEMENT D16W5-1.29099 IS DISTORTING EXCESSIVELY.
   ELEMENT D16W5-1.29099 IS DISTORTING EXCESSIVELY.
   ELEMENT D16W5-1.29101 IS DISTORTING EXCESSIVELY.
   ELEMENT D16W5-1.1802 IS DISTORTING EXCESSIVELY.
   ELEMENT D16W5-1.2575 IS DISTORTING EXCESSIVELY.
   ELEMENT D16W5-1.2575 IS DISTORTING EXCESSIVELY.
   ELEMENT D16W5-1.2839 IS DISTORTING EXCESSIVELY.
   ELEMENT D16W5-1.2839 IS DISTORTING EXCESSIVELY.
   ELEMENT D16W5-1.3160 IS DISTORTING EXCESSIVELY.
   ELEMENT D16W5-1.3306 IS DISTORTING EXCESSIVELY.
   ELEMENT D16W5-1.3307 IS DISTORTING EXCESSIVELY.
   ELEMENT D16W5-1.3307 IS DISTORTING EXCESSIVELY.
   ELEMENT D16W5-1.3898 IS DISTORTING EXCESSIVELY.
   ELEMENT D16W5-1.3899 IS DISTORTING EXCESSIVELY.
   ELEMENT D16W5-1.3899 IS DISTORTING EXCESSIVELY.
   ELEMENT D16W5-1.4801 IS DISTORTING EXCESSIVELY.
   ELEMENT D16W5-1.4802 IS DISTORTING EXCESSIVELY.
   ELEMENT D16W5-1.4802 IS DISTORTING EXCESSIVELY.
   ELEMENT D16W5-1.4805 IS DISTORTING EXCESSIVELY.
   ELEMENT D16W5-1.5758 IS DISTORTING EXCESSIVELY.
   ELEMENT D16W5-1.5759 IS DISTORTING EXCESSIVELY.
   ELEMENT D16W5-1.5759 IS DISTORTING EXCESSIVELY.
   ELEMENT D16W5-1.6306 IS DISTORTING EXCESSIVELY.
   ELEMENT D16W5-1.6306 IS DISTORTING EXCESSIVELY.
   ELEMENT D16W5-1.6653 IS DISTORTING EXCESSIVELY.
   ELEMENT D16W5-1.6656 IS DISTORTING EXCESSIVELY.
   ELEMENT D16W5-1.6977 IS DISTORTING EXCESSIVELY.
   ELEMENT D16W5-1.6977 IS DISTORTING EXCESSIVELY.
   ELEMENT D16W5-1.6977 IS DISTORTING EXCESSIVELY.
   ELEMENT D16W5-1.7138 IS DISTORTING EXCESSIVELY.
   ELEMENT D16W5-1.7138 IS DISTORTING EXCESSIVELY.
   ELEMENT D16W5-1.7138 IS DISTORTING EXCESSIVELY.
[...]
 LARGEST CORRECTION TO DISP.       -2.145E-02   AT NODE        689   DOF  3
   INSTANCE: D16W5-1                                                                         
          DISP.    CORRECTION TOO LARGE COMPARED TO DISP.    INCREMENT

 COMPATIBILITY ERRORS:
    TYPE                NUMBER EXCEEDING TOLERANCE  MAXIMUM ERROR        IN ELEMENT
 VOLUMETRIC                          0               -2.783E-08              27386
   INSTANCE: D16W5-1                                                                         
 

 ***NOTE: THE SOLUTION APPEARS TO BE DIVERGING. CONVERGENCE IS JUDGED UNLIKELY.


  INCREMENT    27 STARTS. ATTEMPT NUMBER  2, TIME INCREMENT  1.000E-08
 
	SYMMETRIC DIRECT SPARSE SOLVER RUNNING ON
 	1 HOST:        1 MPI RANK  x 8 THREADS
 	NUMBER OF EQUATIONS:     178370
 	NUMBER OF RHS:           1
 	NUMBER OF FLOPS:         1.039e+11

     CHECK POINT   START OF SOLVER    

     CHECK POINT  END OF SOLVER       

       ELAPSED USER TIME (SEC)      =   4.7000    
       ELAPSED SYSTEM TIME (SEC)    =   0.0000    
       ELAPSED TOTAL CPU TIME (SEC) =   4.7000    
       ELAPSED WALLCLOCK TIME (SEC) =          1

               CONVERGENCE CHECKS FOR EQUILIBRIUM ITERATION     1


 AVERAGE FORCE                       190.       TIME AVG. FORCE        148.    
 LARGEST RESIDUAL FORCE            -1.062E-06   AT NODE      49293   DOF  2
   INSTANCE: D16W5-1                                                                         
 LARGEST INCREMENT OF DISP.         7.584E-03   AT NODE        689   DOF  3
   INSTANCE: D16W5-1                                                                         
 LARGEST CORRECTION TO DISP.        2.940E-03   AT NODE        689   DOF  3
   INSTANCE: D16W5-1                                                                         
          THE FORCE     EQUILIBRIUM RESPONSE WAS LINEAR IN THIS INCREMENT

 COMPATIBILITY ERRORS:
    TYPE                NUMBER EXCEEDING TOLERANCE  MAXIMUM ERROR        IN ELEMENT
 VOLUMETRIC                          0               -5.226E-10              27386
   INSTANCE: D16W5-1                                                                         
          TIME INCREMENT MAY NOW INCREASE TO    1.500E-08

 ITERATION SUMMARY FOR THE INCREMENT:   1 TOTAL ITERATIONS, OF WHICH
   0 ARE SEVERE DISCONTINUITY ITERATIONS AND  1 ARE EQUILIBRIUM ITERATIONS.

 TIME INCREMENT COMPLETED  1.000E-08,  FRACTION OF STEP COMPLETED  0.930    
 STEP TIME COMPLETED       0.930    ,  TOTAL TIME COMPLETED        0.930    


  INCREMENT    28 STARTS. ATTEMPT NUMBER  1, TIME INCREMENT  1.500E-08
 
	SYMMETRIC DIRECT SPARSE SOLVER RUNNING ON
 	1 HOST:        1 MPI RANK  x 8 THREADS
 	NUMBER OF EQUATIONS:     178370
 	NUMBER OF RHS:           1
 	NUMBER OF FLOPS:         1.039e+11

     CHECK POINT   START OF SOLVER    

     CHECK POINT  END OF SOLVER       

       ELAPSED USER TIME (SEC)      =   5.0000    
       ELAPSED SYSTEM TIME (SEC)    =   0.0000    
       ELAPSED TOTAL CPU TIME (SEC) =   5.0000    
       ELAPSED WALLCLOCK TIME (SEC) =          1
 

 ***WARNING: THE SYSTEM MATRIX HAS 1 NEGATIVE EIGENVALUES.
             EXPLANATIONS ARE SUGGESTED AFTER THE FIRST OCCURRENCE OF THIS MESSAGE.

               CONVERGENCE CHECKS FOR EQUILIBRIUM ITERATION     1


 AVERAGE FORCE                       190.       TIME AVG. FORCE        150.    
 LARGEST RESIDUAL FORCE            -1.680E-04   AT NODE      49293   DOF  2
   INSTANCE: D16W5-1                                                                         
 LARGEST INCREMENT OF DISP.        -2.559E-02   AT NODE        689   DOF  3
   INSTANCE: D16W5-1                                                                         
 LARGEST CORRECTION TO DISP.       -3.697E-02   AT NODE        689   DOF  3
   INSTANCE: D16W5-1                                                                         
          DISP.    CORRECTION TOO LARGE COMPARED TO DISP.    INCREMENT

 COMPATIBILITY ERRORS:
    TYPE                NUMBER EXCEEDING TOLERANCE  MAXIMUM ERROR        IN ELEMENT
 VOLUMETRIC                          0               -8.265E-08              27386
   INSTANCE: D16W5-1                                                                         
 
	SYMMETRIC DIRECT SPARSE SOLVER RUNNING ON
 	1 HOST:        1 MPI RANK  x 8 THREADS
 	NUMBER OF EQUATIONS:     178370
 	NUMBER OF RHS:           1
 	NUMBER OF FLOPS:         1.039e+11

     CHECK POINT   START OF SOLVER    

     CHECK POINT  END OF SOLVER       

       ELAPSED USER TIME (SEC)      =   5.4000    
       ELAPSED SYSTEM TIME (SEC)    =  0.10000    
       ELAPSED TOTAL CPU TIME (SEC) =   5.5000    
       ELAPSED WALLCLOCK TIME (SEC) =          1

               CONVERGENCE CHECKS FOR EQUILIBRIUM ITERATION     2


 AVERAGE FORCE                       190.       TIME AVG. FORCE        150.    
 LARGEST RESIDUAL FORCE            -5.034E-05   AT NODE      49293   DOF  2
   INSTANCE: D16W5-1                                                                         
 LARGEST INCREMENT OF DISP.        -5.352E-03   AT NODE        689   DOF  3
   INSTANCE: D16W5-1                                                                         
 LARGEST CORRECTION TO DISP.        2.024E-02   AT NODE        689   DOF  3
   INSTANCE: D16W5-1                                                                         
          DISP.    CORRECTION TOO LARGE COMPARED TO DISP.    INCREMENT

 COMPATIBILITY ERRORS:
    TYPE                NUMBER EXCEEDING TOLERANCE  MAXIMUM ERROR        IN ELEMENT
 VOLUMETRIC                          0               -2.478E-08              27386
   INSTANCE: D16W5-1                                                                         
 
	SYMMETRIC DIRECT SPARSE SOLVER RUNNING ON
 	1 HOST:        1 MPI RANK  x 8 THREADS
 	NUMBER OF EQUATIONS:     178370
 	NUMBER OF RHS:           1
 	NUMBER OF FLOPS:         1.039e+11

     CHECK POINT   START OF SOLVER    

     CHECK POINT  END OF SOLVER       

       ELAPSED USER TIME (SEC)      =   5.3000    
       ELAPSED SYSTEM TIME (SEC)    =   0.0000    
       ELAPSED TOTAL CPU TIME (SEC) =   5.3000    
       ELAPSED WALLCLOCK TIME (SEC) =          2

               CONVERGENCE CHECKS FOR EQUILIBRIUM ITERATION     3


 AVERAGE FORCE                       190.       TIME AVG. FORCE        150.    
 LARGEST RESIDUAL FORCE            -2.707E-05   AT NODE      49293   DOF  2
   INSTANCE: D16W5-1                                                                         
 LARGEST INCREMENT OF DISP.         9.490E-03   AT NODE        689   DOF  3
   INSTANCE: D16W5-1                                                                         
 LARGEST CORRECTION TO DISP.        1.484E-02   AT NODE        689   DOF  3
   INSTANCE: D16W5-1                                                                         
          DISP.    CORRECTION TOO LARGE COMPARED TO DISP.    INCREMENT

 COMPATIBILITY ERRORS:
    TYPE                NUMBER EXCEEDING TOLERANCE  MAXIMUM ERROR        IN ELEMENT
 VOLUMETRIC                          0               -1.332E-08              27386
   INSTANCE: D16W5-1                                                                         
 
	SYMMETRIC DIRECT SPARSE SOLVER RUNNING ON
 	1 HOST:        1 MPI RANK  x 8 THREADS
 	NUMBER OF EQUATIONS:     178370
 	NUMBER OF RHS:           1
 	NUMBER OF FLOPS:         1.039e+11

     CHECK POINT   START OF SOLVER    

     CHECK POINT  END OF SOLVER       

       ELAPSED USER TIME (SEC)      =   5.1000    
       ELAPSED SYSTEM TIME (SEC)    =   0.0000    
       ELAPSED TOTAL CPU TIME (SEC) =   5.1000    
       ELAPSED WALLCLOCK TIME (SEC) =          2
 

 ***WARNING: THE SYSTEM MATRIX HAS 1 NEGATIVE EIGENVALUES.
             EXPLANATIONS ARE SUGGESTED AFTER THE FIRST OCCURRENCE OF THIS MESSAGE.

               CONVERGENCE CHECKS FOR EQUILIBRIUM ITERATION     4


 AVERAGE FORCE                       190.       TIME AVG. FORCE        150.    
 LARGEST RESIDUAL FORCE            -1.177E-03   AT NODE      49293   DOF  2
   INSTANCE: D16W5-1                                                                         
 LARGEST INCREMENT OF DISP.        -8.839E-02   AT NODE        689   DOF  3
   INSTANCE: D16W5-1                                                                         
 LARGEST CORRECTION TO DISP.       -9.788E-02   AT NODE        689   DOF  3
   INSTANCE: D16W5-1                                                                         
          DISP.    CORRECTION TOO LARGE COMPARED TO DISP.    INCREMENT

 COMPATIBILITY ERRORS:
    TYPE                NUMBER EXCEEDING TOLERANCE  MAXIMUM ERROR        IN ELEMENT
 VOLUMETRIC                          0               -5.795E-07              27386
   INSTANCE: D16W5-1                                                                         
 

 ***NOTE: THE SOLUTION APPEARS TO BE DIVERGING. CONVERGENCE IS JUDGED UNLIKELY.


  INCREMENT    28 STARTS. ATTEMPT NUMBER  2, TIME INCREMENT  1.000E-08
 
	SYMMETRIC DIRECT SPARSE SOLVER RUNNING ON
 	1 HOST:        1 MPI RANK  x 8 THREADS
 	NUMBER OF EQUATIONS:     178370
 	NUMBER OF RHS:           1
 	NUMBER OF FLOPS:         1.039e+11

     CHECK POINT   START OF SOLVER    

     CHECK POINT  END OF SOLVER       

       ELAPSED USER TIME (SEC)      =   5.0000    
       ELAPSED SYSTEM TIME (SEC)    =   0.0000    
       ELAPSED TOTAL CPU TIME (SEC) =   5.0000    
       ELAPSED WALLCLOCK TIME (SEC) =          1

               CONVERGENCE CHECKS FOR EQUILIBRIUM ITERATION     1


 AVERAGE FORCE                       190.       TIME AVG. FORCE        150.    
 LARGEST RESIDUAL FORCE            -1.154E-03   AT NODE      49293   DOF  2
   INSTANCE: D16W5-1                                                                         
 LARGEST INCREMENT OF DISP.         0.104       AT NODE        689   DOF  3
   INSTANCE: D16W5-1                                                                         
 LARGEST CORRECTION TO DISP.        9.687E-02   AT NODE        689   DOF  3
   INSTANCE: D16W5-1                                                                         
          DISP.    CORRECTION TOO LARGE COMPARED TO DISP.    INCREMENT

 COMPATIBILITY ERRORS:
    TYPE                NUMBER EXCEEDING TOLERANCE  MAXIMUM ERROR        IN ELEMENT
 VOLUMETRIC                          0               -5.673E-07              27386
   INSTANCE: D16W5-1                                                                         
 
	SYMMETRIC DIRECT SPARSE SOLVER RUNNING ON
 	1 HOST:        1 MPI RANK  x 8 THREADS
 	NUMBER OF EQUATIONS:     178370
 	NUMBER OF RHS:           1
 	NUMBER OF FLOPS:         1.039e+11

     CHECK POINT   START OF SOLVER    

     CHECK POINT  END OF SOLVER       

       ELAPSED USER TIME (SEC)      =   4.8000    
       ELAPSED SYSTEM TIME (SEC)    =   0.0000    
       ELAPSED TOTAL CPU TIME (SEC) =   4.8000    
       ELAPSED WALLCLOCK TIME (SEC) =          1
 

 ***WARNING: THE SYSTEM MATRIX HAS 1 NEGATIVE EIGENVALUES.
             EXPLANATIONS ARE SUGGESTED AFTER THE FIRST OCCURRENCE OF THIS MESSAGE.

               CONVERGENCE CHECKS FOR EQUILIBRIUM ITERATION     2


 AVERAGE FORCE                       190.       TIME AVG. FORCE        150.    
 LARGEST RESIDUAL FORCE            -2.930E-04   AT NODE      49293   DOF  2
   INSTANCE: D16W5-1                                                                         
 LARGEST INCREMENT OF DISP.         5.564E-02   AT NODE        689   DOF  3
   INSTANCE: D16W5-1                                                                         
 LARGEST CORRECTION TO DISP.       -4.881E-02   AT NODE        689   DOF  3
   INSTANCE: D16W5-1                                                                         
          DISP.    CORRECTION TOO LARGE COMPARED TO DISP.    INCREMENT

 COMPATIBILITY ERRORS:
    TYPE                NUMBER EXCEEDING TOLERANCE  MAXIMUM ERROR        IN ELEMENT
 VOLUMETRIC                          0               -1.440E-07              27386
   INSTANCE: D16W5-1                                                                         
 
	SYMMETRIC DIRECT SPARSE SOLVER RUNNING ON
 	1 HOST:        1 MPI RANK  x 8 THREADS
 	NUMBER OF EQUATIONS:     178370
 	NUMBER OF RHS:           1
 	NUMBER OF FLOPS:         1.039e+11

     CHECK POINT   START OF SOLVER    

     CHECK POINT  END OF SOLVER       

       ELAPSED USER TIME (SEC)      =   5.3000    
       ELAPSED SYSTEM TIME (SEC)    =   0.0000    
       ELAPSED TOTAL CPU TIME (SEC) =   5.3000    
       ELAPSED WALLCLOCK TIME (SEC) =          1
 

 ***WARNING: THE SYSTEM MATRIX HAS 1 NEGATIVE EIGENVALUES.
             EXPLANATIONS ARE SUGGESTED AFTER THE FIRST OCCURRENCE OF THIS MESSAGE.

               CONVERGENCE CHECKS FOR EQUILIBRIUM ITERATION     3


 AVERAGE FORCE                       190.       TIME AVG. FORCE        150.    
 LARGEST RESIDUAL FORCE            -7.710E-05   AT NODE      49293   DOF  2
   INSTANCE: D16W5-1                                                                         
 LARGEST INCREMENT OF DISP.         3.060E-02   AT NODE        689   DOF  3
   INSTANCE: D16W5-1                                                                         
 LARGEST CORRECTION TO DISP.       -2.504E-02   AT NODE        689   DOF  3
   INSTANCE: D16W5-1                                                                         
          DISP.    CORRECTION TOO LARGE COMPARED TO DISP.    INCREMENT

 COMPATIBILITY ERRORS:
    TYPE                NUMBER EXCEEDING TOLERANCE  MAXIMUM ERROR        IN ELEMENT
 VOLUMETRIC                          0               -3.791E-08              27386
   INSTANCE: D16W5-1                                                                         
 
	SYMMETRIC DIRECT SPARSE SOLVER RUNNING ON
 	1 HOST:        1 MPI RANK  x 8 THREADS
 	NUMBER OF EQUATIONS:     178370
 	NUMBER OF RHS:           1
 	NUMBER OF FLOPS:         1.039e+11

     CHECK POINT   START OF SOLVER    

     CHECK POINT  END OF SOLVER       

       ELAPSED USER TIME (SEC)      =   4.6000    
       ELAPSED SYSTEM TIME (SEC)    =   0.0000    
       ELAPSED TOTAL CPU TIME (SEC) =   4.6000    
       ELAPSED WALLCLOCK TIME (SEC) =          2
 

 ***WARNING: THE SYSTEM MATRIX HAS 1 NEGATIVE EIGENVALUES.
             EXPLANATIONS ARE SUGGESTED AFTER THE FIRST OCCURRENCE OF THIS MESSAGE.

               CONVERGENCE CHECKS FOR EQUILIBRIUM ITERATION     4


 AVERAGE FORCE                       190.       TIME AVG. FORCE        150.    
 LARGEST RESIDUAL FORCE            -2.368E-05   AT NODE      49293   DOF  2
   INSTANCE: D16W5-1                                                                         
 LARGEST INCREMENT OF DISP.         1.672E-02   AT NODE        689   DOF  3
   INSTANCE: D16W5-1                                                                         
 LARGEST CORRECTION TO DISP.       -1.388E-02   AT NODE        689   DOF  3
   INSTANCE: D16W5-1                                                                         
          DISP.    CORRECTION TOO LARGE COMPARED TO DISP.    INCREMENT

 COMPATIBILITY ERRORS:
    TYPE                NUMBER EXCEEDING TOLERANCE  MAXIMUM ERROR        IN ELEMENT
 VOLUMETRIC                          0               -1.165E-08              27386
   INSTANCE: D16W5-1                                                                         
 
	SYMMETRIC DIRECT SPARSE SOLVER RUNNING ON
 	1 HOST:        1 MPI RANK  x 8 THREADS
 	NUMBER OF EQUATIONS:     178370
 	NUMBER OF RHS:           1
 	NUMBER OF FLOPS:         1.039e+11

     CHECK POINT   START OF SOLVER    

     CHECK POINT  END OF SOLVER       

       ELAPSED USER TIME (SEC)      =   5.3000    
       ELAPSED SYSTEM TIME (SEC)    =   0.0000    
       ELAPSED TOTAL CPU TIME (SEC) =   5.3000    
       ELAPSED WALLCLOCK TIME (SEC) =          2
 

 ***WARNING: THE SYSTEM MATRIX HAS 1 NEGATIVE EIGENVALUES.
             EXPLANATIONS ARE SUGGESTED AFTER THE FIRST OCCURRENCE OF THIS MESSAGE.

               CONVERGENCE CHECKS FOR EQUILIBRIUM ITERATION     5


 AVERAGE FORCE                       190.       TIME AVG. FORCE        150.    
 LARGEST RESIDUAL FORCE            -1.695E-05   AT NODE      49293   DOF  2
   INSTANCE: D16W5-1                                                                         
 LARGEST INCREMENT OF DISP.         4.974E-03   AT NODE        689   DOF  3
   INSTANCE: D16W5-1                                                                         
 LARGEST CORRECTION TO DISP.       -1.175E-02   AT NODE        689   DOF  3
   INSTANCE: D16W5-1                                                                         
          DISP.    CORRECTION TOO LARGE COMPARED TO DISP.    INCREMENT

 COMPATIBILITY ERRORS:
    TYPE                NUMBER EXCEEDING TOLERANCE  MAXIMUM ERROR        IN ELEMENT
 VOLUMETRIC                          0               -8.341E-09              27386
   INSTANCE: D16W5-1                                                                         
 
	SYMMETRIC DIRECT SPARSE SOLVER RUNNING ON
 	1 HOST:        1 MPI RANK  x 8 THREADS
 	NUMBER OF EQUATIONS:     178370
 	NUMBER OF RHS:           1
 	NUMBER OF FLOPS:         1.039e+11

     CHECK POINT   START OF SOLVER    

     CHECK POINT  END OF SOLVER       

       ELAPSED USER TIME (SEC)      =   5.1000    
       ELAPSED SYSTEM TIME (SEC)    =  0.10000    
       ELAPSED TOTAL CPU TIME (SEC) =   5.2000    
       ELAPSED WALLCLOCK TIME (SEC) =          2

               CONVERGENCE CHECKS FOR EQUILIBRIUM ITERATION     6


 AVERAGE FORCE                       190.       TIME AVG. FORCE        150.    
 LARGEST RESIDUAL FORCE            -5.066E-05   AT NODE      49293   DOF  2
   INSTANCE: D16W5-1                                                                         
 LARGEST INCREMENT OF DISP.         2.528E-02   AT NODE        689   DOF  3
   INSTANCE: D16W5-1                                                                         
 LARGEST CORRECTION TO DISP.        2.030E-02   AT NODE        689   DOF  3
   INSTANCE: D16W5-1                                                                         
          DISP.    CORRECTION TOO LARGE COMPARED TO DISP.    INCREMENT

 COMPATIBILITY ERRORS:
    TYPE                NUMBER EXCEEDING TOLERANCE  MAXIMUM ERROR        IN ELEMENT
 VOLUMETRIC                          0               -2.492E-08              27386
   INSTANCE: D16W5-1                                                                         
 

 ***NOTE: THE SOLUTION APPEARS TO BE DIVERGING. CONVERGENCE IS JUDGED UNLIKELY.
 

 ***ERROR: TIME INCREMENT REQUIRED IS LESS THAN THE MINIMUM SPECIFIED

 ***ERROR: THE ANALYSIS HAS BEEN TERMINATED DUE TO PREVIOUS ERRORS. ALL OUTPUT 
           REQUESTS HAVE BEEN WRITTEN FOR THE LAST CONVERGED INCREMENT.



     ANALYSIS SUMMARY:
     TOTAL OF         28  INCREMENTS
                      22  CUTBACKS IN AUTOMATIC INCREMENTATION
                     171  ITERATIONS INCLUDING CONTACT ITERATIONS IF PRESENT
                     171  PASSES THROUGH THE EQUATION SOLVER OF WHICH 
                     171  INVOLVE MATRIX DECOMPOSITION, INCLUDING
                       0  DECOMPOSITION(S) OF THE MASS MATRIX
                       1  REORDERING OF EQUATIONS TO MINIMIZE WAVEFRONT
                       0  ADDITIONAL RESIDUAL EVALUATIONS FOR LINE SEARCHES
                       0  ADDITIONAL OPERATOR EVALUATIONS FOR LINE SEARCHES
                       0  WARNING MESSAGES DURING USER INPUT PROCESSING
                      62  WARNING MESSAGES DURING ANALYSIS
                       0  ANALYSIS WARNINGS ARE NUMERICAL PROBLEM MESSAGES
                      57  ANALYSIS WARNINGS ARE NEGATIVE EIGENVALUE MESSAGES
                       2  ERROR MESSAGES



     JOB TIME SUMMARY
       USER TIME (SEC)      =   1012.6    
       SYSTEM TIME (SEC)    =   8.7000    
       TOTAL CPU TIME (SEC) =   1021.3    
       WALLCLOCK TIME (SEC) =        433
