 Abaqus/Standard 2022                  DATE 11-Nov-2022 TIME 22:21:43
 SUMMARY OF JOB INFORMATION:
 STEP  INC ATT SEVERE EQUIL TOTAL  TOTAL      STEP       INC OF       DOF    IF
               DISCON ITERS ITERS  TIME/    TIME/LPF    TIME/LPF    MONITOR RIKS
               ITERS               FREQ
   1     1   1U    0     1     1  0.00       0.00       1.000     
   1     1   2     0     4     4  0.250      0.250      0.2500    
   1     2   1     0     4     4  0.500      0.500      0.2500    
   1     3   1U    0     1     1  0.500      0.500      0.3750    
   1     3   2     0     6     6  0.594      0.594      0.09375   
   1     4   1U    0     1     1  0.594      0.594      0.09375   
   1     4   2     0     6     6  0.617      0.617      0.02344   
   1     5   1     0     3     3  0.641      0.641      0.02344   
   1     6   1     0     3     3  0.664      0.664      0.02344   
   1     7   1     0     3     3  0.699      0.699      0.03516   
   1     8   1     0     4     4  0.752      0.752      0.05273   
   1     9   1U    0     1     1  0.752      0.752      0.07910   
   1     9   2     0     2     2  0.772      0.772      0.01978   
   1    10   1     0     2     2  0.801      0.801      0.02966   
   1    11   1     0     3     3  0.846      0.846      0.04449   
   1    12   1     0     4     4  0.913      0.913      0.06674   
   1    13   1U    0     7     7  0.913      0.913      0.08737   
   1    13   2U    0     2     2  0.913      0.913      0.02184   
   1    13   3     0     2     2  0.918      0.918      0.005461  
   1    14   1     0     2     2  0.926      0.926      0.008191  
   1    15   1U    0     4     4  0.926      0.926      0.01229   
   1    15   2     0     3     3  0.929      0.929      0.003072  
   1    16   1U    0     6     6  0.929      0.929      0.004607  
   1    16   2U    0     5     5  0.929      0.929      0.001152  
   1    16   3     0     3     3  0.930      0.930      0.0002880 
   1    17   1U    0     6     6  0.930      0.930      0.0004320 
   1    17   2     0     3     3  0.930      0.930      0.0001080 
   1    18   1U    0     4     4  0.930      0.930      0.0001620 
   1    18   2U    0     6     6  0.930      0.930      4.050e-05 
   1    18   3U    0     5     5  0.930      0.930      1.012e-05 
   1    18   4     0     2     2  0.930      0.930      2.531e-06 
   1    19   1     0     2     2  0.930      0.930      3.796e-06 
   1    20   1U    0     4     4  0.930      0.930      5.695e-06 
   1    20   2     0     2     2  0.930      0.930      1.424e-06 
   1    21   1U    0     6     6  0.930      0.930      2.136e-06 
   1    21   2     0     1     1  0.930      0.930      5.339e-07 
   1    22   1     0     2     2  0.930      0.930      8.008e-07 
   1    23   1U    0     5     5  0.930      0.930      1.201e-06 
   1    23   2U    0     4     4  0.930      0.930      3.003e-07 
   1    23   3     0     2     2  0.930      0.930      7.508e-08 
   1    24   1     0     2     2  0.930      0.930      1.126e-07 
   1    25   1U    0     7     7  0.930      0.930      1.689e-07 
   1    25   2     0     2     2  0.930      0.930      4.223e-08 
   1    26   1U    0     6     6  0.930      0.930      6.335e-08 
   1    26   2     0     1     1  0.930      0.930      1.584e-08 
   1    27   1U    0     6     6  0.930      0.930      2.375e-08 
   1    27   2     0     1     1  0.930      0.930      1.000e-08 
   1    28   1U    0     4     4  0.930      0.930      1.500e-08 
   1    28   2U    0     6     6  0.930      0.930      1.000e-08 
                          
 THE ANALYSIS HAS NOT BEEN COMPLETED
