 Abaqus/Standard 2022                  DATE 11-Nov-2022 TIME 13:08:10
 SUMMARY OF JOB INFORMATION:
 STEP  INC ATT SEVERE EQUIL TOTAL  TOTAL      STEP       INC OF       DOF    IF
               DISCON ITERS ITERS  TIME/    TIME/LPF    TIME/LPF    MONITOR RIKS
               ITERS               FREQ
   1     1   1U    0     1     1  0.00       0.00       3.000     
   1     1   2     0     4     4  0.750      0.750      0.7500    
   1     2   1     0     4     4  1.50       1.50       0.7500    
   1     3   1U    0     1     1  1.50       1.50       1.125     
   1     3   2     0     4     4  1.78       1.78       0.2812    
   1     4   1U    0     1     1  1.78       1.78       0.4219    
   1     4   2     0     4     4  1.89       1.89       0.1055    
   1     5   1U    0     1     1  1.89       1.89       0.1582    
   1     5   2     0     3     3  1.93       1.93       0.03955   
   1     6   1     0     3     3  1.99       1.99       0.05933   
   1     7   1     0     3     3  2.07       2.07       0.08899   
   1     8   1     0     4     4  2.21       2.21       0.1335    
   1     9   1U    0     3     3  2.21       2.21       0.2002    
   1     9   2     0     2     2  2.26       2.26       0.05006   
   1    10   1     0     2     2  2.33       2.33       0.07508   
   1    11   1     0     3     3  2.45       2.45       0.1126    
   1    12   1     0     3     3  2.61       2.61       0.1689    
   1    13   1U    0     6     6  2.61       2.61       0.2534    
   1    13   2     0     2     2  2.68       2.68       0.06335   
   1    14   1     0     2     2  2.77       2.77       0.09503   
   1    15   1U    0     2     2  2.77       2.77       0.1425    
   1    15   2     0     2     2  2.81       2.81       0.03564   
   1    16   1     0     3     3  2.86       2.86       0.05345   
   1    17   1U    0     4     4  2.86       2.86       0.08018   
   1    17   2U    0     4     4  2.86       2.86       0.02005   
   1    17   3U    0     6     6  2.86       2.86       0.005011  
   1    17   4     0     2     2  2.86       2.86       0.001253  
   1    18   1U    0     7     7  2.86       2.86       0.001879  
   1    18   2     0     1     1  2.86       2.86       0.0004698 
   1    19   1     0     2     2  2.86       2.86       0.0007047 
   1    20   1U    0     1     1  2.86       2.86       0.001057  
   1    20   2     0     2     2  2.86       2.86       0.0002643 
   1    21   1U    0     7     7  2.86       2.86       0.0003964 
   1    21   2     0     2     2  2.87       2.87       9.910e-05 
   1    22   1U    0     7     7  2.87       2.87       0.0001487 
   1    22   2U    0     6     6  2.87       2.87       3.716e-05 
   1    22   3     0     2     2  2.87       2.87       9.291e-06 
   1    23   1     0     2     2  2.87       2.87       1.394e-05 
   1    24   1U    0     8     8  2.87       2.87       2.090e-05 
   1    24   2U    0     6     6  2.87       2.87       5.226e-06 
   1    24   3     0     2     2  2.87       2.87       1.306e-06 
   1    25   1     0     2     2  2.87       2.87       1.960e-06 
   1    26   1U    0     4     4  2.87       2.87       2.940e-06 
   1    26   2U    0     6     6  2.87       2.87       7.349e-07 
   1    26   3     0     3     3  2.87       2.87       1.837e-07 
   1    27   1U    0     7     7  2.87       2.87       2.756e-07 
   1    27   2U    0     9     9  2.87       2.87       6.890e-08 
   1    27   3     0     2     2  2.87       2.87       1.722e-08 
   1    28   1U    0     5     5  2.87       2.87       2.584e-08 
   1    28   2     0     1     1  2.87       2.87       1.000e-08 
   1    29   1U    0     4     4  2.87       2.87       1.500e-08 
   1    29   2U    0     5     5  2.87       2.87       1.000e-08 
                          
 THE ANALYSIS HAS NOT BEEN COMPLETED
