1

   Abaqus 2022                                  Date 11-Nov-2022   Time 13:08:04
   For use by Supplied by Team-SolidSQUAD under license from Dassault Systemes or its subsidiary.

                                                                                 
                                                                                 
 STEP    1     INCREMENT     1     STEP TIME    0.00    


                        S T E P       1     S T A T I C   A N A L Y S I S


                                                                                          

     AUTOMATIC TIME CONTROL WITH -
          A SUGGESTED INITIAL TIME INCREMENT OF                 3.00    
          AND A TOTAL TIME PERIOD OF                            3.00    
          THE MINIMUM TIME INCREMENT ALLOWED IS                1.000E-08
          THE MAXIMUM TIME INCREMENT ALLOWED IS                 3.00    

     LINEAR EQUATION SOLVER TYPE         DIRECT SPARSE

 CONVERGENCE TOLERANCE PARAMETERS FOR FORCE    
     CRITERION FOR RESIDUAL FORCE     FOR A NONLINEAR PROBLEM          5.000E-03
     CRITERION FOR DISP.    CORRECTION IN A NONLINEAR PROBLEM          1.000E-02
     INITIAL VALUE OF TIME AVERAGE FORCE                               1.000E-02
     AVERAGE FORCE     IS TIME AVERAGE FORCE    
     ALTERNATE CRIT. FOR RESIDUAL FORCE     FOR A NONLINEAR PROBLEM    2.000E-02
     CRITERION FOR ZERO FORCE     RELATIVE TO TIME AVRG. FORCE         1.000E-05
     CRITERION FOR RESIDUAL FORCE     WHEN THERE IS ZERO FLUX          1.000E-05
     CRITERION FOR DISP.    CORRECTION WHEN THERE IS ZERO FLUX         1.000E-03
     CRITERION FOR RESIDUAL FORCE     FOR A LINEAR INCREMENT           1.000E-08
     FIELD CONVERSION RATIO                                             1.00    
     CRITERION FOR ZERO FORCE     REL. TO TIME AVRG. MAX. FORCE        1.000E-05
     CRITERION FOR ZERO DISP.    RELATIVE TO CHARACTERISTIC LENGTH     1.000E-08

     VOLUMETRIC STRAIN COMPATIBILITY TOLERANCE FOR HYBRID SOLIDS       1.000E-05
     AXIAL STRAIN COMPATIBILITY TOLERANCE FOR HYBRID BEAMS             1.000E-05
     TRANS. SHEAR STRAIN COMPATIBILITY TOLERANCE FOR HYBRID BEAMS      1.000E-05
     SOFT CONTACT CONSTRAINT COMPATIBILITY TOLERANCE FOR P>P0          5.000E-03
     SOFT CONTACT CONSTRAINT COMPATIBILITY TOLERANCE FOR P=0.0         0.100    
     CONTACT FORCE ERROR TOLERANCE FOR CONVERT SDI=YES                 1.00    
     DISPLACEMENT COMPATIBILITY TOLERANCE FOR DCOUP ELEMENTS           1.000E-05
     ROTATION COMPATIBILITY TOLERANCE FOR DCOUP ELEMENTS               1.000E-05

 EQUILIBRIUM WILL BE CHECKED FOR SEVERE DISCONTINUITY ITERATIONS

 TIME INCREMENTATION CONTROL PARAMETERS:
     FIRST EQUILIBRIUM ITERATION FOR CONSECUTIVE DIVERGENCE CHECK              4
     EQUILIBRIUM ITERATION AT WHICH LOG. CONVERGENCE RATE CHECK BEGINS         8
     EQUILIBRIUM ITERATION AFTER WHICH ALTERNATE RESIDUAL IS USED              9
     MAXIMUM EQUILIBRIUM ITERATIONS ALLOWED                                   16
     EQUILIBRIUM ITERATION COUNT FOR CUT-BACK IN NEXT INCREMENT               10
     MAXIMUM EQUILIB. ITERS IN TWO INCREMENTS FOR TIME INCREMENT INCREASE      4
     MAXIMUM ITERATIONS FOR SEVERE DISCONTINUITIES                            50
     MAXIMUM ATTEMPTS ALLOWED IN AN INCREMENT                                  5
     MAXIMUM DISCON. ITERS IN TWO INCREMENTS FOR TIME INCREMENT INCREASE      50
     MAXIMUM CONTACT AUGMENTATIONS FOR *SURFACE BEHAVIOR,AUGMENTED LAGRANGE   50
     CUT-BACK FACTOR AFTER DIVERGENCE                                 0.2500    
     CUT-BACK FACTOR FOR TOO SLOW CONVERGENCE                         0.5000    
     CUT-BACK FACTOR AFTER TOO MANY EQUILIBRIUM ITERATIONS            0.7500    
     CUT-BACK FACTOR AFTER TOO MANY SEVERE DISCONTINUITY ITERATIONS   0.2500    
     CUT-BACK FACTOR AFTER PROBLEMS IN ELEMENT ASSEMBLY               0.2500    
     INCREASE FACTOR AFTER TWO INCREMENTS THAT CONVERGE QUICKLY        1.500    
     MAX. TIME INCREMENT INCREASE FACTOR ALLOWED                       1.500    
     MAX. TIME INCREMENT INCREASE FACTOR ALLOWED (DYNAMICS)            1.250    
     MAX. TIME INCREMENT INCREASE FACTOR ALLOWED (DIFFUSION)           2.000    
     MINIMUM TIME INCREMENT RATIO FOR EXTRAPOLATION TO OCCUR          0.1000    
     MAX. RATIO OF TIME INCREMENT TO STABILITY LIMIT                   1.000    
     FRACTION OF STABILITY LIMIT FOR NEW TIME INCREMENT               0.9500    
     TIME INCREMENT INCREASE FACTOR BEFORE A TIME POINT                1.000    
     GLOBAL STABILIZATION CONTROL IS NOT USED

          PRINT OF INCREMENT NUMBER, TIME, ETC., EVERY    1  INCREMENTS

     THE MAXIMUM NUMBER OF INCREMENTS IN THIS STEP IS                 1000000

          LARGE DISPLACEMENT THEORY WILL BE USED

     LINEAR EXTRAPOLATION WILL BE USED

     CHARACTERISTIC ELEMENT LENGTH      175.    

     DETAILS REGARDING ACTUAL SOLUTION WAVEFRONT REQUESTED

     DETAILED OUTPUT OF DIAGNOSTICS TO DATABASE REQUESTED

     PRINT OF INCREMENT NUMBER, TIME, ETC., TO THE MESSAGE FILE EVERY     1  INCREMENTS

     ELEMENT OPERATIONS WILL BE CARRIED OUT IN PARALLEL USING   8 THREADS ON 1 DOMAIN

     PARALLEL CONTACT TRACKING ENABLED


     COLLECTING MODEL CONSTRAINT INFORMATION FOR OVERCONSTRAINT CHECKS

     COLLECTING STEP CONSTRAINT INFORMATION FOR OVERCONSTRAINT CHECKS


  INCREMENT     1 STARTS. ATTEMPT NUMBER  1, TIME INCREMENT   3.00    
 
     INITIAL ELEMENT LOAD BALANCE
            DOMAIN    1     THREAD    NUMBER OF ELEMENTS
                              1            3792
                              2            3704
                              3            3936
                              4            3800
                              5            3872
                              6            4140
                              7            3912
                              8            3856
 
	SYMMETRIC DIRECT SPARSE SOLVER RUNNING ON
 	1 HOST:        1 MPI RANK  x 8 THREADS
 	NUMBER OF EQUATIONS:     186250
 	NUMBER OF RHS:           1
 	NUMBER OF FLOPS:         1.051e+11

     CHECK POINT   START OF SOLVER    

     CHECK POINT  END OF SOLVER       

       ELAPSED USER TIME (SEC)      =   5.1000    
       ELAPSED SYSTEM TIME (SEC)    =   0.0000    
       ELAPSED TOTAL CPU TIME (SEC) =   5.1000    
       ELAPSED WALLCLOCK TIME (SEC) =          1
 

 ***WARNING: THE SYSTEM MATRIX HAS 8 NEGATIVE EIGENVALUES.

     NEGATIVE EIGENVALUES MEAN THAT THE SYSTEM MATRIX IS NOT 
     POSITIVE DEFINITE:
     FOR EXAMPLE, A BIFURCATION (BUCKLING) LOAD MAY HAVE BEEN EXCEEDED.
   ELEMENT SILICON FINAL V1-1.4495 IS DISTORTING EXCESSIVELY.
   ELEMENT SILICON FINAL V1-1.4495 IS DISTORTING EXCESSIVELY.
   ELEMENT SILICON FINAL V1-1.6111 IS DISTORTING EXCESSIVELY.
   ELEMENT SILICON FINAL V1-1.7053 IS DISTORTING EXCESSIVELY.
   ELEMENT SILICON FINAL V1-1.7053 IS DISTORTING EXCESSIVELY.
   ELEMENT SILICON FINAL V1-1.7531 IS DISTORTING EXCESSIVELY.
   ELEMENT SILICON FINAL V1-1.7531 IS DISTORTING EXCESSIVELY.
   ELEMENT SILICON FINAL V1-1.7534 IS DISTORTING EXCESSIVELY.
   ELEMENT SILICON FINAL V1-1.7534 IS DISTORTING EXCESSIVELY.
   ELEMENT SILICON FINAL V1-1.7534 IS DISTORTING EXCESSIVELY.
   ELEMENT SILICON FINAL V1-1.8536 IS DISTORTING EXCESSIVELY.
   ELEMENT SILICON FINAL V1-1.8966 IS DISTORTING EXCESSIVELY.
   ELEMENT SILICON FINAL V1-1.8966 IS DISTORTING EXCESSIVELY.
   ELEMENT SILICON FINAL V1-1.9193 IS DISTORTING EXCESSIVELY.
   ELEMENT SILICON FINAL V1-1.9193 IS DISTORTING EXCESSIVELY.
   ELEMENT SILICON FINAL V1-1.9193 IS DISTORTING EXCESSIVELY.
   ELEMENT SILICON FINAL V1-1.10177 IS DISTORTING EXCESSIVELY.
   ELEMENT SILICON FINAL V1-1.10507 IS DISTORTING EXCESSIVELY.
   ELEMENT SILICON FINAL V1-1.10507 IS DISTORTING EXCESSIVELY.
   ELEMENT SILICON FINAL V1-1.10507 IS DISTORTING EXCESSIVELY.
   ELEMENT SILICON FINAL V1-1.10508 IS DISTORTING EXCESSIVELY.
   ELEMENT SILICON FINAL V1-1.10508 IS DISTORTING EXCESSIVELY.
   ELEMENT SILICON FINAL V1-1.10509 IS DISTORTING EXCESSIVELY.
   ELEMENT SILICON FINAL V1-1.10509 IS DISTORTING EXCESSIVELY.
   ELEMENT SILICON FINAL V1-1.16934 IS DISTORTING EXCESSIVELY.
   ELEMENT SILICON FINAL V1-1.16934 IS DISTORTING EXCESSIVELY.
   ELEMENT SILICON FINAL V1-1.18083 IS DISTORTING EXCESSIVELY.
   ELEMENT SILICON FINAL V1-1.18084 IS DISTORTING EXCESSIVELY.
   ELEMENT SILICON FINAL V1-1.19287 IS DISTORTING EXCESSIVELY.
   ELEMENT SILICON FINAL V1-1.19659 IS DISTORTING EXCESSIVELY.
   ELEMENT SILICON FINAL V1-1.21101 IS DISTORTING EXCESSIVELY.
   ELEMENT SILICON FINAL V1-1.22862 IS DISTORTING EXCESSIVELY.
   ELEMENT SILICON FINAL V1-1.22862 IS DISTORTING EXCESSIVELY.
   ELEMENT SILICON FINAL V1-1.23707 IS DISTORTING EXCESSIVELY.
   ELEMENT SILICON FINAL V1-1.23932 IS DISTORTING EXCESSIVELY.
   ELEMENT SILICON FINAL V1-1.23932 IS DISTORTING EXCESSIVELY.
   ELEMENT SILICON FINAL V1-1.23932 IS DISTORTING EXCESSIVELY.
   ELEMENT SILICON FINAL V1-1.23934 IS DISTORTING EXCESSIVELY.
   ELEMENT SILICON FINAL V1-1.23934 IS DISTORTING EXCESSIVELY.
   ELEMENT SILICON FINAL V1-1.23934 IS DISTORTING EXCESSIVELY.
   ELEMENT SILICON FINAL V1-1.23934 IS DISTORTING EXCESSIVELY.
   ELEMENT SILICON FINAL V1-1.25257 IS DISTORTING EXCESSIVELY.
   ELEMENT SILICON FINAL V1-1.25257 IS DISTORTING EXCESSIVELY.
   ELEMENT SILICON FINAL V1-1.25655 IS DISTORTING EXCESSIVELY.
   ELEMENT SILICON FINAL V1-1.25655 IS DISTORTING EXCESSIVELY.
   ELEMENT SILICON FINAL V1-1.25655 IS DISTORTING EXCESSIVELY.
   ELEMENT SILICON FINAL V1-1.27583 IS DISTORTING EXCESSIVELY.
   ELEMENT SILICON FINAL V1-1.29186 IS DISTORTING EXCESSIVELY.
   ELEMENT SILICON FINAL V1-1.29186 IS DISTORTING EXCESSIVELY.
   ELEMENT SILICON FINAL V1-1.30123 IS DISTORTING EXCESSIVELY.
   ELEMENT SILICON FINAL V1-1.30123 IS DISTORTING EXCESSIVELY.
   ELEMENT SILICON FINAL V1-1.1703 IS DISTORTING EXCESSIVELY.
   ELEMENT SILICON FINAL V1-1.1704 IS DISTORTING EXCESSIVELY.
   ELEMENT SILICON FINAL V1-1.1704 IS DISTORTING EXCESSIVELY.
   ELEMENT SILICON FINAL V1-1.2419 IS DISTORTING EXCESSIVELY.
   ELEMENT SILICON FINAL V1-1.3345 IS DISTORTING EXCESSIVELY.
   ELEMENT SILICON FINAL V1-1.4241 IS DISTORTING EXCESSIVELY.
   ELEMENT SILICON FINAL V1-1.4241 IS DISTORTING EXCESSIVELY.
   ELEMENT SILICON FINAL V1-1.4853 IS DISTORTING EXCESSIVELY.
   ELEMENT SILICON FINAL V1-1.4854 IS DISTORTING EXCESSIVELY.
   ELEMENT SILICON FINAL V1-1.4854 IS DISTORTING EXCESSIVELY.
   ELEMENT SILICON FINAL V1-1.4855 IS DISTORTING EXCESSIVELY.
   ELEMENT SILICON FINAL V1-1.4855 IS DISTORTING EXCESSIVELY.
   ELEMENT SILICON FINAL V1-1.5055 IS DISTORTING EXCESSIVELY.
   ELEMENT SILICON FINAL V1-1.5994 IS DISTORTING EXCESSIVELY.
   ELEMENT SILICON FINAL V1-1.5994 IS DISTORTING EXCESSIVELY.
   ELEMENT SILICON FINAL V1-1.6537 IS DISTORTING EXCESSIVELY.
   ELEMENT SILICON FINAL V1-1.7097 IS DISTORTING EXCESSIVELY.
   ELEMENT SILICON FINAL V1-1.7097 IS DISTORTING EXCESSIVELY.
   ELEMENT SILICON FINAL V1-1.7097 IS DISTORTING EXCESSIVELY.
   ELEMENT SILICON FINAL V1-1.7098 IS DISTORTING EXCESSIVELY.
   ELEMENT SILICON FINAL V1-1.7098 IS DISTORTING EXCESSIVELY.
   ELEMENT SILICON FINAL V1-1.7098 IS DISTORTING EXCESSIVELY.
   ELEMENT SILICON FINAL V1-1.7660 IS DISTORTING EXCESSIVELY.
   ELEMENT SILICON FINAL V1-1.7660 IS DISTORTING EXCESSIVELY.
   ELEMENT SILICON FINAL V1-1.7660 IS DISTORTING EXCESSIVELY.
   ELEMENT SILICON FINAL V1-1.7660 IS DISTORTING EXCESSIVELY.
   ELEMENT SILICON FINAL V1-1.7724 IS DISTORTING EXCESSIVELY.
   ELEMENT SILICON FINAL V1-1.7724 IS DISTORTING EXCESSIVELY.
   ELEMENT SILICON FINAL V1-1.7724 IS DISTORTING EXCESSIVELY.
   ELEMENT SILICON FINAL V1-1.8295 IS DISTORTING EXCESSIVELY.
   ELEMENT SILICON FINAL V1-1.8637 IS DISTORTING EXCESSIVELY.
   ELEMENT SILICON FINAL V1-1.8637 IS DISTORTING EXCESSIVELY.
   ELEMENT SILICON FINAL V1-1.8869 IS DISTORTING EXCESSIVELY.
   ELEMENT SILICON FINAL V1-1.8869 IS DISTORTING EXCESSIVELY.
   ELEMENT SILICON FINAL V1-1.8869 IS DISTORTING EXCESSIVELY.
   ELEMENT SILICON FINAL V1-1.9047 IS DISTORTING EXCESSIVELY.
   ELEMENT SILICON FINAL V1-1.9047 IS DISTORTING EXCESSIVELY.
   ELEMENT SILICON FINAL V1-1.9175 IS DISTORTING EXCESSIVELY.
   ELEMENT SILICON FINAL V1-1.9175 IS DISTORTING EXCESSIVELY.
   ELEMENT SILICON FINAL V1-1.9175 IS DISTORTING EXCESSIVELY.
   ELEMENT SILICON FINAL V1-1.9319 IS DISTORTING EXCESSIVELY.
   ELEMENT SILICON FINAL V1-1.9319 IS DISTORTING EXCESSIVELY.
   ELEMENT SILICON FINAL V1-1.9426 IS DISTORTING EXCESSIVELY.
   ELEMENT SILICON FINAL V1-1.9429 IS DISTORTING EXCESSIVELY.
   ELEMENT SILICON FINAL V1-1.9429 IS DISTORTING EXCESSIVELY.
   ELEMENT SILICON FINAL V1-1.9918 IS DISTORTING EXCESSIVELY.
   ELEMENT SILICON FINAL V1-1.10504 IS DISTORTING EXCESSIVELY.
   ELEMENT SILICON FINAL V1-1.10504 IS DISTORTING EXCESSIVELY.
   ELEMENT SILICON FINAL V1-1.10504 IS DISTORTING EXCESSIVELY.
   ELEMENT SILICON FINAL V1-1.10699 IS DISTORTING EXCESSIVELY.
   ELEMENT SILICON FINAL V1-1.10716 IS DISTORTING EXCESSIVELY.
   ELEMENT SILICON FINAL V1-1.10716 IS DISTORTING EXCESSIVELY.
   ELEMENT SILICON FINAL V1-1.10716 IS DISTORTING EXCESSIVELY.
   ELEMENT SILICON FINAL V1-1.10844 IS DISTORTING EXCESSIVELY.
   ELEMENT SILICON FINAL V1-1.10844 IS DISTORTING EXCESSIVELY.
   ELEMENT SILICON FINAL V1-1.10982 IS DISTORTING EXCESSIVELY.
   ELEMENT SILICON FINAL V1-1.10982 IS DISTORTING EXCESSIVELY.
   ELEMENT SILICON FINAL V1-1.10982 IS DISTORTING EXCESSIVELY.
   ELEMENT SILICON FINAL V1-1.11079 IS DISTORTING EXCESSIVELY.
   ELEMENT SILICON FINAL V1-1.11110 IS DISTORTING EXCESSIVELY.
   ELEMENT SILICON FINAL V1-1.11110 IS DISTORTING EXCESSIVELY.
   ELEMENT SILICON FINAL V1-1.11110 IS DISTORTING EXCESSIVELY.
   ELEMENT SILICON FINAL V1-1.11372 IS DISTORTING EXCESSIVELY.
   ELEMENT SILICON FINAL V1-1.13057 IS DISTORTING EXCESSIVELY.
   ELEMENT SILICON FINAL V1-1.13057 IS DISTORTING EXCESSIVELY.
   ELEMENT SILICON FINAL V1-1.13060 IS DISTORTING EXCESSIVELY.
   ELEMENT SILICON FINAL V1-1.13060 IS DISTORTING EXCESSIVELY.
   ELEMENT SILICON FINAL V1-1.13060 IS DISTORTING EXCESSIVELY.
   ELEMENT SILICON FINAL V1-1.17342 IS DISTORTING EXCESSIVELY.
   ELEMENT SILICON FINAL V1-1.17809 IS DISTORTING EXCESSIVELY.
   ELEMENT SILICON FINAL V1-1.18019 IS DISTORTING EXCESSIVELY.
   ELEMENT SILICON FINAL V1-1.18019 IS DISTORTING EXCESSIVELY.
   ELEMENT SILICON FINAL V1-1.18019 IS DISTORTING EXCESSIVELY.
   ELEMENT SILICON FINAL V1-1.19151 IS DISTORTING EXCESSIVELY.
   ELEMENT SILICON FINAL V1-1.19317 IS DISTORTING EXCESSIVELY.
   ELEMENT SILICON FINAL V1-1.19353 IS DISTORTING EXCESSIVELY.
   ELEMENT SILICON FINAL V1-1.19353 IS DISTORTING EXCESSIVELY.
   ELEMENT SILICON FINAL V1-1.19354 IS DISTORTING EXCESSIVELY.
   ELEMENT SILICON FINAL V1-1.19354 IS DISTORTING EXCESSIVELY.
   ELEMENT SILICON FINAL V1-1.19357 IS DISTORTING EXCESSIVELY.
   ELEMENT SILICON FINAL V1-1.19357 IS DISTORTING EXCESSIVELY.
   ELEMENT SILICON FINAL V1-1.22732 IS DISTORTING EXCESSIVELY.
   ELEMENT SILICON FINAL V1-1.22732 IS DISTORTING EXCESSIVELY.
   ELEMENT SILICON FINAL V1-1.23066 IS DISTORTING EXCESSIVELY.
   ELEMENT SILICON FINAL V1-1.23066 IS DISTORTING EXCESSIVELY.
   ELEMENT SILICON FINAL V1-1.23066 IS DISTORTING EXCESSIVELY.
   ELEMENT SILICON FINAL V1-1.23579 IS DISTORTING EXCESSIVELY.
   ELEMENT SILICON FINAL V1-1.23579 IS DISTORTING EXCESSIVELY.
   ELEMENT SILICON FINAL V1-1.23580 IS DISTORTING EXCESSIVELY.
   ELEMENT SILICON FINAL V1-1.23811 IS DISTORTING EXCESSIVELY.
   ELEMENT SILICON FINAL V1-1.23811 IS DISTORTING EXCESSIVELY.
   ELEMENT SILICON FINAL V1-1.23813 IS DISTORTING EXCESSIVELY.
   ELEMENT SILICON FINAL V1-1.23813 IS DISTORTING EXCESSIVELY.
   ELEMENT SILICON FINAL V1-1.23813 IS DISTORTING EXCESSIVELY.
   ELEMENT SILICON FINAL V1-1.23815 IS DISTORTING EXCESSIVELY.
   ELEMENT SILICON FINAL V1-1.24154 IS DISTORTING EXCESSIVELY.
   ELEMENT SILICON FINAL V1-1.24154 IS DISTORTING EXCESSIVELY.
   ELEMENT SILICON FINAL V1-1.24154 IS DISTORTING EXCESSIVELY.
   ELEMENT SILICON FINAL V1-1.24155 IS DISTORTING EXCESSIVELY.
   ELEMENT SILICON FINAL V1-1.24155 IS DISTORTING EXCESSIVELY.
   ELEMENT SILICON FINAL V1-1.24155 IS DISTORTING EXCESSIVELY.
   ELEMENT SILICON FINAL V1-1.24534 IS DISTORTING EXCESSIVELY.
   ELEMENT SILICON FINAL V1-1.24534 IS DISTORTING EXCESSIVELY.
   ELEMENT SILICON FINAL V1-1.24534 IS DISTORTING EXCESSIVELY.
   ELEMENT SILICON FINAL V1-1.24849 IS DISTORTING EXCESSIVELY.
   ELEMENT SILICON FINAL V1-1.24849 IS DISTORTING EXCESSIVELY.
   ELEMENT SILICON FINAL V1-1.24987 IS DISTORTING EXCESSIVELY.
   ELEMENT SILICON FINAL V1-1.24987 IS DISTORTING EXCESSIVELY.
   ELEMENT SILICON FINAL V1-1.24987 IS DISTORTING EXCESSIVELY.
   ELEMENT SILICON FINAL V1-1.25287 IS DISTORTING EXCESSIVELY.
   ELEMENT SILICON FINAL V1-1.25425 IS DISTORTING EXCESSIVELY.
   ELEMENT SILICON FINAL V1-1.25430 IS DISTORTING EXCESSIVELY.
   ELEMENT SILICON FINAL V1-1.25430 IS DISTORTING EXCESSIVELY.
   ELEMENT SILICON FINAL V1-1.25567 IS DISTORTING EXCESSIVELY.
   ELEMENT SILICON FINAL V1-1.25567 IS DISTORTING EXCESSIVELY.
   ELEMENT SILICON FINAL V1-1.25683 IS DISTORTING EXCESSIVELY.
   ELEMENT SILICON FINAL V1-1.25683 IS DISTORTING EXCESSIVELY.
   ELEMENT SILICON FINAL V1-1.27153 IS DISTORTING EXCESSIVELY.
   ELEMENT SILICON FINAL V1-1.27153 IS DISTORTING EXCESSIVELY.
   ELEMENT SILICON FINAL V1-1.27153 IS DISTORTING EXCESSIVELY.
   ELEMENT SILICON FINAL V1-1.28048 IS DISTORTING EXCESSIVELY.
   ELEMENT SILICON FINAL V1-1.28507 IS DISTORTING EXCESSIVELY.
   ELEMENT SILICON FINAL V1-1.28507 IS DISTORTING EXCESSIVELY.
   ELEMENT SILICON FINAL V1-1.29286 IS DISTORTING EXCESSIVELY.
   ELEMENT SILICON FINAL V1-1.29286 IS DISTORTING EXCESSIVELY.
   ELEMENT SILICON FINAL V1-1.29286 IS DISTORTING EXCESSIVELY.
   ELEMENT SILICON FINAL V1-1.29715 IS DISTORTING EXCESSIVELY.
   ELEMENT SILICON FINAL V1-1.29870 IS DISTORTING EXCESSIVELY.
   ELEMENT SILICON FINAL V1-1.30439 IS DISTORTING EXCESSIVELY.
   ELEMENT SILICON FINAL V1-1.30439 IS DISTORTING EXCESSIVELY.
   ELEMENT SILICON FINAL V1-1.30439 IS DISTORTING EXCESSIVELY.
   ELEMENT SILICON FINAL V1-1.1860 IS DISTORTING EXCESSIVELY.
   ELEMENT SILICON FINAL V1-1.1860 IS DISTORTING EXCESSIVELY.
   ELEMENT SILICON FINAL V1-1.1947 IS DISTORTING EXCESSIVELY.
   ELEMENT SILICON FINAL V1-1.1947 IS DISTORTING EXCESSIVELY.
   ELEMENT SILICON FINAL V1-1.1947 IS DISTORTING EXCESSIVELY.
   ELEMENT SILICON FINAL V1-1.1947 IS DISTORTING EXCESSIVELY.
   ELEMENT SILICON FINAL V1-1.2649 IS DISTORTING EXCESSIVELY.
   ELEMENT SILICON FINAL V1-1.2649 IS DISTORTING EXCESSIVELY.
   ELEMENT SILICON FINAL V1-1.2652 IS DISTORTING EXCESSIVELY.
   ELEMENT SILICON FINAL V1-1.3014 IS DISTORTING EXCESSIVELY.
   ELEMENT SILICON FINAL V1-1.4402 IS DISTORTING EXCESSIVELY.
   ELEMENT SILICON FINAL V1-1.4499 IS DISTORTING EXCESSIVELY.
   ELEMENT SILICON FINAL V1-1.4499 IS DISTORTING EXCESSIVELY.
   ELEMENT SILICON FINAL V1-1.4652 IS DISTORTING EXCESSIVELY.
   ELEMENT SILICON FINAL V1-1.5057 IS DISTORTING EXCESSIVELY.
   ELEMENT SILICON FINAL V1-1.5057 IS DISTORTING EXCESSIVELY.
   ELEMENT SILICON FINAL V1-1.5061 IS DISTORTING EXCESSIVELY.
   ELEMENT SILICON FINAL V1-1.5061 IS DISTORTING EXCESSIVELY.
   ELEMENT SILICON FINAL V1-1.5063 IS DISTORTING EXCESSIVELY.
   ELEMENT SILICON FINAL V1-1.6624 IS DISTORTING EXCESSIVELY.
   ELEMENT SILICON FINAL V1-1.6876 IS DISTORTING EXCESSIVELY.
   ELEMENT SILICON FINAL V1-1.6876 IS DISTORTING EXCESSIVELY.
   ELEMENT SILICON FINAL V1-1.7147 IS DISTORTING EXCESSIVELY.
   ELEMENT SILICON FINAL V1-1.7147 IS DISTORTING EXCESSIVELY.
   ELEMENT SILICON FINAL V1-1.7149 IS DISTORTING EXCESSIVELY.
   ELEMENT SILICON FINAL V1-1.7149 IS DISTORTING EXCESSIVELY.
   ELEMENT SILICON FINAL V1-1.7549 IS DISTORTING EXCESSIVELY.
   ELEMENT SILICON FINAL V1-1.7549 IS DISTORTING EXCESSIVELY.
   ELEMENT SILICON FINAL V1-1.7676 IS DISTORTING EXCESSIVELY.
   ELEMENT SILICON FINAL V1-1.7676 IS DISTORTING EXCESSIVELY.
   ELEMENT SILICON FINAL V1-1.7676 IS DISTORTING EXCESSIVELY.
   ELEMENT SILICON FINAL V1-1.7679 IS DISTORTING EXCESSIVELY.
   ELEMENT SILICON FINAL V1-1.8482 IS DISTORTING EXCESSIVELY.
   ELEMENT SILICON FINAL V1-1.8652 IS DISTORTING EXCESSIVELY.
   ELEMENT SILICON FINAL V1-1.8652 IS DISTORTING EXCESSIVELY.
   ELEMENT SILICON FINAL V1-1.8788 IS DISTORTING EXCESSIVELY.
   ELEMENT SILICON FINAL V1-1.8790 IS DISTORTING EXCESSIVELY.
   ELEMENT SILICON FINAL V1-1.8790 IS DISTORTING EXCESSIVELY.
   ELEMENT SILICON FINAL V1-1.8790 IS DISTORTING EXCESSIVELY.
   ELEMENT SILICON FINAL V1-1.8792 IS DISTORTING EXCESSIVELY.
   ELEMENT SILICON FINAL V1-1.8792 IS DISTORTING EXCESSIVELY.
   ELEMENT SILICON FINAL V1-1.8792 IS DISTORTING EXCESSIVELY.
   ELEMENT SILICON FINAL V1-1.9231 IS DISTORTING EXCESSIVELY.
   ELEMENT SILICON FINAL V1-1.9273 IS DISTORTING EXCESSIVELY.
   ELEMENT SILICON FINAL V1-1.9273 IS DISTORTING EXCESSIVELY.
   ELEMENT SILICON FINAL V1-1.9372 IS DISTORTING EXCESSIVELY.
   ELEMENT SILICON FINAL V1-1.9372 IS DISTORTING EXCESSIVELY.
   ELEMENT SILICON FINAL V1-1.9372 IS DISTORTING EXCESSIVELY.
   ELEMENT SILICON FINAL V1-1.9373 IS DISTORTING EXCESSIVELY.
   ELEMENT SILICON FINAL V1-1.9373 IS DISTORTING EXCESSIVELY.
   ELEMENT SILICON FINAL V1-1.9921 IS DISTORTING EXCESSIVELY.
   ELEMENT SILICON FINAL V1-1.9922 IS DISTORTING EXCESSIVELY.
   ELEMENT SILICON FINAL V1-1.9922 IS DISTORTING EXCESSIVELY.
   ELEMENT SILICON FINAL V1-1.9922 IS DISTORTING EXCESSIVELY.
   ELEMENT SILICON FINAL V1-1.9923 IS DISTORTING EXCESSIVELY.
   ELEMENT SILICON FINAL V1-1.9925 IS DISTORTING EXCESSIVELY.
   ELEMENT SILICON FINAL V1-1.10272 IS DISTORTING EXCESSIVELY.
   ELEMENT SILICON FINAL V1-1.10446 IS DISTORTING EXCESSIVELY.
   ELEMENT SILICON FINAL V1-1.10446 IS DISTORTING EXCESSIVELY.
   ELEMENT SILICON FINAL V1-1.10446 IS DISTORTING EXCESSIVELY.
   ELEMENT SILICON FINAL V1-1.10657 IS DISTORTING EXCESSIVELY.
   ELEMENT SILICON FINAL V1-1.10661 IS DISTORTING EXCESSIVELY.
   ELEMENT SILICON FINAL V1-1.10661 IS DISTORTING EXCESSIVELY.
   ELEMENT SILICON FINAL V1-1.10661 IS DISTORTING EXCESSIVELY.
   ELEMENT SILICON FINAL V1-1.10661 IS DISTORTING EXCESSIVELY.
   ELEMENT SILICON FINAL V1-1.10869 IS DISTORTING EXCESSIVELY.
   ELEMENT SILICON FINAL V1-1.10869 IS DISTORTING EXCESSIVELY.
   ELEMENT SILICON FINAL V1-1.10869 IS DISTORTING EXCESSIVELY.
   ELEMENT SILICON FINAL V1-1.10991 IS DISTORTING EXCESSIVELY.
   ELEMENT SILICON FINAL V1-1.10991 IS DISTORTING EXCESSIVELY.
   ELEMENT SILICON FINAL V1-1.10991 IS DISTORTING EXCESSIVELY.
   ELEMENT SILICON FINAL V1-1.11113 IS DISTORTING EXCESSIVELY.
   ELEMENT SILICON FINAL V1-1.11149 IS DISTORTING EXCESSIVELY.
   ELEMENT SILICON FINAL V1-1.11149 IS DISTORTING EXCESSIVELY.
   ELEMENT SILICON FINAL V1-1.11149 IS DISTORTING EXCESSIVELY.
   ELEMENT SILICON FINAL V1-1.11526 IS DISTORTING EXCESSIVELY.
   ELEMENT SILICON FINAL V1-1.11526 IS DISTORTING EXCESSIVELY.
   ELEMENT SILICON FINAL V1-1.13056 IS DISTORTING EXCESSIVELY.
   ELEMENT SILICON FINAL V1-1.13579 IS DISTORTING EXCESSIVELY.
   ELEMENT SILICON FINAL V1-1.13579 IS DISTORTING EXCESSIVELY.
   ELEMENT SILICON FINAL V1-1.13579 IS DISTORTING EXCESSIVELY.
   ELEMENT SILICON FINAL V1-1.14073 IS DISTORTING EXCESSIVELY.
   ELEMENT SILICON FINAL V1-1.14073 IS DISTORTING EXCESSIVELY.
   ELEMENT SILICON FINAL V1-1.15344 IS DISTORTING EXCESSIVELY.
   ELEMENT SILICON FINAL V1-1.15344 IS DISTORTING EXCESSIVELY.
   ELEMENT SILICON FINAL V1-1.17367 IS DISTORTING EXCESSIVELY.
   ELEMENT SILICON FINAL V1-1.17367 IS DISTORTING EXCESSIVELY.
   ELEMENT SILICON FINAL V1-1.17940 IS DISTORTING EXCESSIVELY.
   ELEMENT SILICON FINAL V1-1.17940 IS DISTORTING EXCESSIVELY.
   ELEMENT SILICON FINAL V1-1.18485 IS DISTORTING EXCESSIVELY.
   ELEMENT SILICON FINAL V1-1.18485 IS DISTORTING EXCESSIVELY.
   ELEMENT SILICON FINAL V1-1.18485 IS DISTORTING EXCESSIVELY.
   ELEMENT SILICON FINAL V1-1.19255 IS DISTORTING EXCESSIVELY.
   ELEMENT SILICON FINAL V1-1.19255 IS DISTORTING EXCESSIVELY.
   ELEMENT SILICON FINAL V1-1.19435 IS DISTORTING EXCESSIVELY.
   ELEMENT SILICON FINAL V1-1.19668 IS DISTORTING EXCESSIVELY.
   ELEMENT SILICON FINAL V1-1.19668 IS DISTORTING EXCESSIVELY.
   ELEMENT SILICON FINAL V1-1.19668 IS DISTORTING EXCESSIVELY.
   ELEMENT SILICON FINAL V1-1.21343 IS DISTORTING EXCESSIVELY.
   ELEMENT SILICON FINAL V1-1.21343 IS DISTORTING EXCESSIVELY.
   ELEMENT SILICON FINAL V1-1.21643 IS DISTORTING EXCESSIVELY.
   ELEMENT SILICON FINAL V1-1.23073 IS DISTORTING EXCESSIVELY.
   ELEMENT SILICON FINAL V1-1.23073 IS DISTORTING EXCESSIVELY.
   ELEMENT SILICON FINAL V1-1.23073 IS DISTORTING EXCESSIVELY.
   ELEMENT SILICON FINAL V1-1.23454 IS DISTORTING EXCESSIVELY.
   ELEMENT SILICON FINAL V1-1.23454 IS DISTORTING EXCESSIVELY.
   ELEMENT SILICON FINAL V1-1.23792 IS DISTORTING EXCESSIVELY.
   ELEMENT SILICON FINAL V1-1.23792 IS DISTORTING EXCESSIVELY.
   ELEMENT SILICON FINAL V1-1.23792 IS DISTORTING EXCESSIVELY.
   ELEMENT SILICON FINAL V1-1.23792 IS DISTORTING EXCESSIVELY.
   ELEMENT SILICON FINAL V1-1.24036 IS DISTORTING EXCESSIVELY.
   ELEMENT SILICON FINAL V1-1.24036 IS DISTORTING EXCESSIVELY.
   ELEMENT SILICON FINAL V1-1.24038 IS DISTORTING EXCESSIVELY.
   ELEMENT SILICON FINAL V1-1.24039 IS DISTORTING EXCESSIVELY.
   ELEMENT SILICON FINAL V1-1.24306 IS DISTORTING EXCESSIVELY.
   ELEMENT SILICON FINAL V1-1.24306 IS DISTORTING EXCESSIVELY.
   ELEMENT SILICON FINAL V1-1.24306 IS DISTORTING EXCESSIVELY.
   ELEMENT SILICON FINAL V1-1.24306 IS DISTORTING EXCESSIVELY.
   ELEMENT SILICON FINAL V1-1.24701 IS DISTORTING EXCESSIVELY.
   ELEMENT SILICON FINAL V1-1.24701 IS DISTORTING EXCESSIVELY.
   ELEMENT SILICON FINAL V1-1.24703 IS DISTORTING EXCESSIVELY.
   ELEMENT SILICON FINAL V1-1.24703 IS DISTORTING EXCESSIVELY.
   ELEMENT SILICON FINAL V1-1.24704 IS DISTORTING EXCESSIVELY.
   ELEMENT SILICON FINAL V1-1.24704 IS DISTORTING EXCESSIVELY.
   ELEMENT SILICON FINAL V1-1.25125 IS DISTORTING EXCESSIVELY.
   ELEMENT SILICON FINAL V1-1.25125 IS DISTORTING EXCESSIVELY.
   ELEMENT SILICON FINAL V1-1.25373 IS DISTORTING EXCESSIVELY.
   ELEMENT SILICON FINAL V1-1.25373 IS DISTORTING EXCESSIVELY.
   ELEMENT SILICON FINAL V1-1.25482 IS DISTORTING EXCESSIVELY.
   ELEMENT SILICON FINAL V1-1.25559 IS DISTORTING EXCESSIVELY.
   ELEMENT SILICON FINAL V1-1.25559 IS DISTORTING EXCESSIVELY.
   ELEMENT SILICON FINAL V1-1.25559 IS DISTORTING EXCESSIVELY.
   ELEMENT SILICON FINAL V1-1.25560 IS DISTORTING EXCESSIVELY.
   ELEMENT SILICON FINAL V1-1.25560 IS DISTORTING EXCESSIVELY.
   ELEMENT SILICON FINAL V1-1.27180 IS DISTORTING EXCESSIVELY.
   ELEMENT SILICON FINAL V1-1.27180 IS DISTORTING EXCESSIVELY.
   ELEMENT SILICON FINAL V1-1.27645 IS DISTORTING EXCESSIVELY.
   ELEMENT SILICON FINAL V1-1.27645 IS DISTORTING EXCESSIVELY.
   ELEMENT SILICON FINAL V1-1.28613 IS DISTORTING EXCESSIVELY.
   ELEMENT SILICON FINAL V1-1.28613 IS DISTORTING EXCESSIVELY.
   ELEMENT SILICON FINAL V1-1.29428 IS DISTORTING EXCESSIVELY.
   ELEMENT SILICON FINAL V1-1.29428 IS DISTORTING EXCESSIVELY.
   ELEMENT SILICON FINAL V1-1.29428 IS DISTORTING EXCESSIVELY.
   ELEMENT SILICON FINAL V1-1.2361 IS DISTORTING EXCESSIVELY.
   ELEMENT SILICON FINAL V1-1.2407 IS DISTORTING EXCESSIVELY.
   ELEMENT SILICON FINAL V1-1.4007 IS DISTORTING EXCESSIVELY.
   ELEMENT SILICON FINAL V1-1.4667 IS DISTORTING EXCESSIVELY.
   ELEMENT SILICON FINAL V1-1.5145 IS DISTORTING EXCESSIVELY.
   ELEMENT SILICON FINAL V1-1.5145 IS DISTORTING EXCESSIVELY.
   ELEMENT SILICON FINAL V1-1.5388 IS DISTORTING EXCESSIVELY.
   ELEMENT SILICON FINAL V1-1.5388 IS DISTORTING EXCESSIVELY.
   ELEMENT SILICON FINAL V1-1.6077 IS DISTORTING EXCESSIVELY.
   ELEMENT SILICON FINAL V1-1.6079 IS DISTORTING EXCESSIVELY.
   ELEMENT SILICON FINAL V1-1.6079 IS DISTORTING EXCESSIVELY.
   ELEMENT SILICON FINAL V1-1.7196 IS DISTORTING EXCESSIVELY.
   ELEMENT SILICON FINAL V1-1.7196 IS DISTORTING EXCESSIVELY.
   ELEMENT SILICON FINAL V1-1.7308 IS DISTORTING EXCESSIVELY.
   ELEMENT SILICON FINAL V1-1.7308 IS DISTORTING EXCESSIVELY.
   ELEMENT SILICON FINAL V1-1.7611 IS DISTORTING EXCESSIVELY.
   ELEMENT SILICON FINAL V1-1.7611 IS DISTORTING EXCESSIVELY.
   ELEMENT SILICON FINAL V1-1.7611 IS DISTORTING EXCESSIVELY.
   ELEMENT SILICON FINAL V1-1.7613 IS DISTORTING EXCESSIVELY.
   ELEMENT SILICON FINAL V1-1.7613 IS DISTORTING EXCESSIVELY.
   ELEMENT SILICON FINAL V1-1.8514 IS DISTORTING EXCESSIVELY.
   ELEMENT SILICON FINAL V1-1.8514 IS DISTORTING EXCESSIVELY.
   ELEMENT SILICON FINAL V1-1.8514 IS DISTORTING EXCESSIVELY.
   ELEMENT SILICON FINAL V1-1.8779 IS DISTORTING EXCESSIVELY.
   ELEMENT SILICON FINAL V1-1.8779 IS DISTORTING EXCESSIVELY.
   ELEMENT SILICON FINAL V1-1.8779 IS DISTORTING EXCESSIVELY.
   ELEMENT SILICON FINAL V1-1.9102 IS DISTORTING EXCESSIVELY.
   ELEMENT SILICON FINAL V1-1.9102 IS DISTORTING EXCESSIVELY.
   ELEMENT SILICON FINAL V1-1.9102 IS DISTORTING EXCESSIVELY.
   ELEMENT SILICON FINAL V1-1.9102 IS DISTORTING EXCESSIVELY.
   ELEMENT SILICON FINAL V1-1.9252 IS DISTORTING EXCESSIVELY.
   ELEMENT SILICON FINAL V1-1.9252 IS DISTORTING EXCESSIVELY.
   ELEMENT SILICON FINAL V1-1.9252 IS DISTORTING EXCESSIVELY.
   ELEMENT SILICON FINAL V1-1.9255 IS DISTORTING EXCESSIVELY.
   ELEMENT SILICON FINAL V1-1.9255 IS DISTORTING EXCESSIVELY.
   ELEMENT SILICON FINAL V1-1.9255 IS DISTORTING EXCESSIVELY.
   ELEMENT SILICON FINAL V1-1.10428 IS DISTORTING EXCESSIVELY.
   ELEMENT SILICON FINAL V1-1.10428 IS DISTORTING EXCESSIVELY.
   ELEMENT SILICON FINAL V1-1.10428 IS DISTORTING EXCESSIVELY.
   ELEMENT SILICON FINAL V1-1.10585 IS DISTORTING EXCESSIVELY.
   ELEMENT SILICON FINAL V1-1.10585 IS DISTORTING EXCESSIVELY.
   ELEMENT SILICON FINAL V1-1.10723 IS DISTORTING EXCESSIVELY.
   ELEMENT SILICON FINAL V1-1.10723 IS DISTORTING EXCESSIVELY.
   ELEMENT SILICON FINAL V1-1.10723 IS DISTORTING EXCESSIVELY.
   ELEMENT SILICON FINAL V1-1.10723 IS DISTORTING EXCESSIVELY.
   ELEMENT SILICON FINAL V1-1.10727 IS DISTORTING EXCESSIVELY.
   ELEMENT SILICON FINAL V1-1.10727 IS DISTORTING EXCESSIVELY.
   ELEMENT SILICON FINAL V1-1.10727 IS DISTORTING EXCESSIVELY.
   ELEMENT SILICON FINAL V1-1.11100 IS DISTORTING EXCESSIVELY.
   ELEMENT SILICON FINAL V1-1.11100 IS DISTORTING EXCESSIVELY.
   ELEMENT SILICON FINAL V1-1.11100 IS DISTORTING EXCESSIVELY.
   ELEMENT SILICON FINAL V1-1.11347 IS DISTORTING EXCESSIVELY.
   ELEMENT SILICON FINAL V1-1.12967 IS DISTORTING EXCESSIVELY.
   ELEMENT SILICON FINAL V1-1.12967 IS DISTORTING EXCESSIVELY.
   ELEMENT SILICON FINAL V1-1.14240 IS DISTORTING EXCESSIVELY.
   ELEMENT SILICON FINAL V1-1.14240 IS DISTORTING EXCESSIVELY.
   ELEMENT SILICON FINAL V1-1.15470 IS DISTORTING EXCESSIVELY.
   ELEMENT SILICON FINAL V1-1.15470 IS DISTORTING EXCESSIVELY.
   ELEMENT SILICON FINAL V1-1.15470 IS DISTORTING EXCESSIVELY.
   ELEMENT SILICON FINAL V1-1.16421 IS DISTORTING EXCESSIVELY.
   ELEMENT SILICON FINAL V1-1.16421 IS DISTORTING EXCESSIVELY.
   ELEMENT SILICON FINAL V1-1.17374 IS DISTORTING EXCESSIVELY.
   ELEMENT SILICON FINAL V1-1.17374 IS DISTORTING EXCESSIVELY.
   ELEMENT SILICON FINAL V1-1.17960 IS DISTORTING EXCESSIVELY.
   ELEMENT SILICON FINAL V1-1.18076 IS DISTORTING EXCESSIVELY.
   ELEMENT SILICON FINAL V1-1.18079 IS DISTORTING EXCESSIVELY.
   ELEMENT SILICON FINAL V1-1.18079 IS DISTORTING EXCESSIVELY.
   ELEMENT SILICON FINAL V1-1.18080 IS DISTORTING EXCESSIVELY.
   ELEMENT SILICON FINAL V1-1.18080 IS DISTORTING EXCESSIVELY.
   ELEMENT SILICON FINAL V1-1.19258 IS DISTORTING EXCESSIVELY.
   ELEMENT SILICON FINAL V1-1.19258 IS DISTORTING EXCESSIVELY.
   ELEMENT SILICON FINAL V1-1.19425 IS DISTORTING EXCESSIVELY.
   ELEMENT SILICON FINAL V1-1.21470 IS DISTORTING EXCESSIVELY.
   ELEMENT SILICON FINAL V1-1.22721 IS DISTORTING EXCESSIVELY.
   ELEMENT SILICON FINAL V1-1.22721 IS DISTORTING EXCESSIVELY.
   ELEMENT SILICON FINAL V1-1.22721 IS DISTORTING EXCESSIVELY.
   ELEMENT SILICON FINAL V1-1.23417 IS DISTORTING EXCESSIVELY.
   ELEMENT SILICON FINAL V1-1.23417 IS DISTORTING EXCESSIVELY.
   ELEMENT SILICON FINAL V1-1.23548 IS DISTORTING EXCESSIVELY.
   ELEMENT SILICON FINAL V1-1.23551 IS DISTORTING EXCESSIVELY.
   ELEMENT SILICON FINAL V1-1.23551 IS DISTORTING EXCESSIVELY.
   ELEMENT SILICON FINAL V1-1.23923 IS DISTORTING EXCESSIVELY.
   ELEMENT SILICON FINAL V1-1.23926 IS DISTORTING EXCESSIVELY.
   ELEMENT SILICON FINAL V1-1.23926 IS DISTORTING EXCESSIVELY.
   ELEMENT SILICON FINAL V1-1.23926 IS DISTORTING EXCESSIVELY.
   ELEMENT SILICON FINAL V1-1.23926 IS DISTORTING EXCESSIVELY.
   ELEMENT SILICON FINAL V1-1.23928 IS DISTORTING EXCESSIVELY.
   ELEMENT SILICON FINAL V1-1.23928 IS DISTORTING EXCESSIVELY.
   ELEMENT SILICON FINAL V1-1.24180 IS DISTORTING EXCESSIVELY.
   ELEMENT SILICON FINAL V1-1.24184 IS DISTORTING EXCESSIVELY.
   ELEMENT SILICON FINAL V1-1.24184 IS DISTORTING EXCESSIVELY.
   ELEMENT SILICON FINAL V1-1.24184 IS DISTORTING EXCESSIVELY.
   ELEMENT SILICON FINAL V1-1.24184 IS DISTORTING EXCESSIVELY.
   ELEMENT SILICON FINAL V1-1.24553 IS DISTORTING EXCESSIVELY.
   ELEMENT SILICON FINAL V1-1.24553 IS DISTORTING EXCESSIVELY.
   ELEMENT SILICON FINAL V1-1.24557 IS DISTORTING EXCESSIVELY.
   ELEMENT SILICON FINAL V1-1.24557 IS DISTORTING EXCESSIVELY.
   ELEMENT SILICON FINAL V1-1.24971 IS DISTORTING EXCESSIVELY.
   ELEMENT SILICON FINAL V1-1.25085 IS DISTORTING EXCESSIVELY.
   ELEMENT SILICON FINAL V1-1.25085 IS DISTORTING EXCESSIVELY.
   ELEMENT SILICON FINAL V1-1.25085 IS DISTORTING EXCESSIVELY.
   ELEMENT SILICON FINAL V1-1.25415 IS DISTORTING EXCESSIVELY.
   ELEMENT SILICON FINAL V1-1.25415 IS DISTORTING EXCESSIVELY.
   ELEMENT SILICON FINAL V1-1.25415 IS DISTORTING EXCESSIVELY.
   ELEMENT SILICON FINAL V1-1.25547 IS DISTORTING EXCESSIVELY.
   ELEMENT SILICON FINAL V1-1.25547 IS DISTORTING EXCESSIVELY.
   ELEMENT SILICON FINAL V1-1.25551 IS DISTORTING EXCESSIVELY.
   ELEMENT SILICON FINAL V1-1.25827 IS DISTORTING EXCESSIVELY.
   ELEMENT SILICON FINAL V1-1.25827 IS DISTORTING EXCESSIVELY.
   ELEMENT SILICON FINAL V1-1.25827 IS DISTORTING EXCESSIVELY.
   ELEMENT SILICON FINAL V1-1.27432 IS DISTORTING EXCESSIVELY.
   ELEMENT SILICON FINAL V1-1.27965 IS DISTORTING EXCESSIVELY.
   ELEMENT SILICON FINAL V1-1.27965 IS DISTORTING EXCESSIVELY.
   ELEMENT SILICON FINAL V1-1.28878 IS DISTORTING EXCESSIVELY.
   ELEMENT SILICON FINAL V1-1.28878 IS DISTORTING EXCESSIVELY.
   ELEMENT SILICON FINAL V1-1.28878 IS DISTORTING EXCESSIVELY.
   ELEMENT SILICON FINAL V1-1.29601 IS DISTORTING EXCESSIVELY.
   ELEMENT SILICON FINAL V1-1.29601 IS DISTORTING EXCESSIVELY.
   ELEMENT SILICON FINAL V1-1.30593 IS DISTORTING EXCESSIVELY.
   ELEMENT SILICON FINAL V1-1.595 IS DISTORTING EXCESSIVELY.
   ELEMENT SILICON FINAL V1-1.1231 IS DISTORTING EXCESSIVELY.
   ELEMENT SILICON FINAL V1-1.1231 IS DISTORTING EXCESSIVELY.
   ELEMENT SILICON FINAL V1-1.2537 IS DISTORTING EXCESSIVELY.
   ELEMENT SILICON FINAL V1-1.2538 IS DISTORTING EXCESSIVELY.
   ELEMENT SILICON FINAL V1-1.2538 IS DISTORTING EXCESSIVELY.
   ELEMENT SILICON FINAL V1-1.2633 IS DISTORTING EXCESSIVELY.
   ELEMENT SILICON FINAL V1-1.2634 IS DISTORTING EXCESSIVELY.
   ELEMENT SILICON FINAL V1-1.2634 IS DISTORTING EXCESSIVELY.
   ELEMENT SILICON FINAL V1-1.2947 IS DISTORTING EXCESSIVELY.
   ELEMENT SILICON FINAL V1-1.4044 IS DISTORTING EXCESSIVELY.
   ELEMENT SILICON FINAL V1-1.4857 IS DISTORTING EXCESSIVELY.
   ELEMENT SILICON FINAL V1-1.4860 IS DISTORTING EXCESSIVELY.
   ELEMENT SILICON FINAL V1-1.4863 IS DISTORTING EXCESSIVELY.
   ELEMENT SILICON FINAL V1-1.4863 IS DISTORTING EXCESSIVELY.
   ELEMENT SILICON FINAL V1-1.5128 IS DISTORTING EXCESSIVELY.
   ELEMENT SILICON FINAL V1-1.5128 IS DISTORTING EXCESSIVELY.
   ELEMENT SILICON FINAL V1-1.5487 IS DISTORTING EXCESSIVELY.
   ELEMENT SILICON FINAL V1-1.6081 IS DISTORTING EXCESSIVELY.
   ELEMENT SILICON FINAL V1-1.6586 IS DISTORTING EXCESSIVELY.
   ELEMENT SILICON FINAL V1-1.7023 IS DISTORTING EXCESSIVELY.
   ELEMENT SILICON FINAL V1-1.7277 IS DISTORTING EXCESSIVELY.
   ELEMENT SILICON FINAL V1-1.7277 IS DISTORTING EXCESSIVELY.
   ELEMENT SILICON FINAL V1-1.7279 IS DISTORTING EXCESSIVELY.
   ELEMENT SILICON FINAL V1-1.7538 IS DISTORTING EXCESSIVELY.
   ELEMENT SILICON FINAL V1-1.7538 IS DISTORTING EXCESSIVELY.
   ELEMENT SILICON FINAL V1-1.7538 IS DISTORTING EXCESSIVELY.
   ELEMENT SILICON FINAL V1-1.7605 IS DISTORTING EXCESSIVELY.
   ELEMENT SILICON FINAL V1-1.7605 IS DISTORTING EXCESSIVELY.
   ELEMENT SILICON FINAL V1-1.7605 IS DISTORTING EXCESSIVELY.
   ELEMENT SILICON FINAL V1-1.7700 IS DISTORTING EXCESSIVELY.
   ELEMENT SILICON FINAL V1-1.7700 IS DISTORTING EXCESSIVELY.
   ELEMENT SILICON FINAL V1-1.7999 IS DISTORTING EXCESSIVELY.
   ELEMENT SILICON FINAL V1-1.7999 IS DISTORTING EXCESSIVELY.
   ELEMENT SILICON FINAL V1-1.7999 IS DISTORTING EXCESSIVELY.
   ELEMENT SILICON FINAL V1-1.8626 IS DISTORTING EXCESSIVELY.
   ELEMENT SILICON FINAL V1-1.8627 IS DISTORTING EXCESSIVELY.
   ELEMENT SILICON FINAL V1-1.8627 IS DISTORTING EXCESSIVELY.
   ELEMENT SILICON FINAL V1-1.8937 IS DISTORTING EXCESSIVELY.
   ELEMENT SILICON FINAL V1-1.8937 IS DISTORTING EXCESSIVELY.
   ELEMENT SILICON FINAL V1-1.8937 IS DISTORTING EXCESSIVELY.
   ELEMENT SILICON FINAL V1-1.8939 IS DISTORTING EXCESSIVELY.
   ELEMENT SILICON FINAL V1-1.8939 IS DISTORTING EXCESSIVELY.
   ELEMENT SILICON FINAL V1-1.9157 IS DISTORTING EXCESSIVELY.
   ELEMENT SILICON FINAL V1-1.9159 IS DISTORTING EXCESSIVELY.
   ELEMENT SILICON FINAL V1-1.9233 IS DISTORTING EXCESSIVELY.
   ELEMENT SILICON FINAL V1-1.9233 IS DISTORTING EXCESSIVELY.
   ELEMENT SILICON FINAL V1-1.9366 IS DISTORTING EXCESSIVELY.
   ELEMENT SILICON FINAL V1-1.9377 IS DISTORTING EXCESSIVELY.
   ELEMENT SILICON FINAL V1-1.9383 IS DISTORTING EXCESSIVELY.
   ELEMENT SILICON FINAL V1-1.9503 IS DISTORTING EXCESSIVELY.
   ELEMENT SILICON FINAL V1-1.9503 IS DISTORTING EXCESSIVELY.
   ELEMENT SILICON FINAL V1-1.9503 IS DISTORTING EXCESSIVELY.
   ELEMENT SILICON FINAL V1-1.9931 IS DISTORTING EXCESSIVELY.
   ELEMENT SILICON FINAL V1-1.9931 IS DISTORTING EXCESSIVELY.
   ELEMENT SILICON FINAL V1-1.10343 IS DISTORTING EXCESSIVELY.
   ELEMENT SILICON FINAL V1-1.10343 IS DISTORTING EXCESSIVELY.
   ELEMENT SILICON FINAL V1-1.10566 IS DISTORTING EXCESSIVELY.
   ELEMENT SILICON FINAL V1-1.10566 IS DISTORTING EXCESSIVELY.
   ELEMENT SILICON FINAL V1-1.10566 IS DISTORTING EXCESSIVELY.
   ELEMENT SILICON FINAL V1-1.10568 IS DISTORTING EXCESSIVELY.
   ELEMENT SILICON FINAL V1-1.10568 IS DISTORTING EXCESSIVELY.
   ELEMENT SILICON FINAL V1-1.10787 IS DISTORTING EXCESSIVELY.
   ELEMENT SILICON FINAL V1-1.10787 IS DISTORTING EXCESSIVELY.
   ELEMENT SILICON FINAL V1-1.10787 IS DISTORTING EXCESSIVELY.
   ELEMENT SILICON FINAL V1-1.10791 IS DISTORTING EXCESSIVELY.
   ELEMENT SILICON FINAL V1-1.10791 IS DISTORTING EXCESSIVELY.
   ELEMENT SILICON FINAL V1-1.11024 IS DISTORTING EXCESSIVELY.
   ELEMENT SILICON FINAL V1-1.11024 IS DISTORTING EXCESSIVELY.
   ELEMENT SILICON FINAL V1-1.11024 IS DISTORTING EXCESSIVELY.
   ELEMENT SILICON FINAL V1-1.11141 IS DISTORTING EXCESSIVELY.
   ELEMENT SILICON FINAL V1-1.11141 IS DISTORTING EXCESSIVELY.
   ELEMENT SILICON FINAL V1-1.11141 IS DISTORTING EXCESSIVELY.
   ELEMENT SILICON FINAL V1-1.11560 IS DISTORTING EXCESSIVELY.
   ELEMENT SILICON FINAL V1-1.11560 IS DISTORTING EXCESSIVELY.
   ELEMENT SILICON FINAL V1-1.16691 IS DISTORTING EXCESSIVELY.
   ELEMENT SILICON FINAL V1-1.16691 IS DISTORTING EXCESSIVELY.
   ELEMENT SILICON FINAL V1-1.17377 IS DISTORTING EXCESSIVELY.
   ELEMENT SILICON FINAL V1-1.17994 IS DISTORTING EXCESSIVELY.
   ELEMENT SILICON FINAL V1-1.19154 IS DISTORTING EXCESSIVELY.
   ELEMENT SILICON FINAL V1-1.19154 IS DISTORTING EXCESSIVELY.
   ELEMENT SILICON FINAL V1-1.19154 IS DISTORTING EXCESSIVELY.
   ELEMENT SILICON FINAL V1-1.21482 IS DISTORTING EXCESSIVELY.
   ELEMENT SILICON FINAL V1-1.21482 IS DISTORTING EXCESSIVELY.
   ELEMENT SILICON FINAL V1-1.21482 IS DISTORTING EXCESSIVELY.
   ELEMENT SILICON FINAL V1-1.21486 IS DISTORTING EXCESSIVELY.
   ELEMENT SILICON FINAL V1-1.21486 IS DISTORTING EXCESSIVELY.
   ELEMENT SILICON FINAL V1-1.21717 IS DISTORTING EXCESSIVELY.
   ELEMENT SILICON FINAL V1-1.23161 IS DISTORTING EXCESSIVELY.
   ELEMENT SILICON FINAL V1-1.23161 IS DISTORTING EXCESSIVELY.
   ELEMENT SILICON FINAL V1-1.23304 IS DISTORTING EXCESSIVELY.
   ELEMENT SILICON FINAL V1-1.23304 IS DISTORTING EXCESSIVELY.
   ELEMENT SILICON FINAL V1-1.23304 IS DISTORTING EXCESSIVELY.
   ELEMENT SILICON FINAL V1-1.23915 IS DISTORTING EXCESSIVELY.
   ELEMENT SILICON FINAL V1-1.23915 IS DISTORTING EXCESSIVELY.
   ELEMENT SILICON FINAL V1-1.24009 IS DISTORTING EXCESSIVELY.
   ELEMENT SILICON FINAL V1-1.24009 IS DISTORTING EXCESSIVELY.
   ELEMENT SILICON FINAL V1-1.24009 IS DISTORTING EXCESSIVELY.
   ELEMENT SILICON FINAL V1-1.24146 IS DISTORTING EXCESSIVELY.
   ELEMENT SILICON FINAL V1-1.24146 IS DISTORTING EXCESSIVELY.
   ELEMENT SILICON FINAL V1-1.24146 IS DISTORTING EXCESSIVELY.
   ELEMENT SILICON FINAL V1-1.24407 IS DISTORTING EXCESSIVELY.
   ELEMENT SILICON FINAL V1-1.24407 IS DISTORTING EXCESSIVELY.
   ELEMENT SILICON FINAL V1-1.24407 IS DISTORTING EXCESSIVELY.
   ELEMENT SILICON FINAL V1-1.24783 IS DISTORTING EXCESSIVELY.
   ELEMENT SILICON FINAL V1-1.24809 IS DISTORTING EXCESSIVELY.
   ELEMENT SILICON FINAL V1-1.24809 IS DISTORTING EXCESSIVELY.
   ELEMENT SILICON FINAL V1-1.24810 IS DISTORTING EXCESSIVELY.
   ELEMENT SILICON FINAL V1-1.24815 IS DISTORTING EXCESSIVELY.
   ELEMENT SILICON FINAL V1-1.25118 IS DISTORTING EXCESSIVELY.
   ELEMENT SILICON FINAL V1-1.25252 IS DISTORTING EXCESSIVELY.
   ELEMENT SILICON FINAL V1-1.25253 IS DISTORTING EXCESSIVELY.
   ELEMENT SILICON FINAL V1-1.25434 IS DISTORTING EXCESSIVELY.
   ELEMENT SILICON FINAL V1-1.25434 IS DISTORTING EXCESSIVELY.
   ELEMENT SILICON FINAL V1-1.25518 IS DISTORTING EXCESSIVELY.
   ELEMENT SILICON FINAL V1-1.25518 IS DISTORTING EXCESSIVELY.
   ELEMENT SILICON FINAL V1-1.25518 IS DISTORTING EXCESSIVELY.
   ELEMENT SILICON FINAL V1-1.25817 IS DISTORTING EXCESSIVELY.
   ELEMENT SILICON FINAL V1-1.25817 IS DISTORTING EXCESSIVELY.
   ELEMENT SILICON FINAL V1-1.27119 IS DISTORTING EXCESSIVELY.
   ELEMENT SILICON FINAL V1-1.27119 IS DISTORTING EXCESSIVELY.
   ELEMENT SILICON FINAL V1-1.27119 IS DISTORTING EXCESSIVELY.
   ELEMENT SILICON FINAL V1-1.28160 IS DISTORTING EXCESSIVELY.
   ELEMENT SILICON FINAL V1-1.28160 IS DISTORTING EXCESSIVELY.
   ELEMENT SILICON FINAL V1-1.28160 IS DISTORTING EXCESSIVELY.
   ELEMENT SILICON FINAL V1-1.29175 IS DISTORTING EXCESSIVELY.
   ELEMENT SILICON FINAL V1-1.29526 IS DISTORTING EXCESSIVELY.
   ELEMENT SILICON FINAL V1-1.29710 IS DISTORTING EXCESSIVELY.
   ELEMENT SILICON FINAL V1-1.30182 IS DISTORTING EXCESSIVELY.
   ELEMENT SILICON FINAL V1-1.30182 IS DISTORTING EXCESSIVELY.
   ELEMENT SILICON FINAL V1-1.30584 IS DISTORTING EXCESSIVELY.
   ELEMENT SILICON FINAL V1-1.30584 IS DISTORTING EXCESSIVELY.
   ELEMENT SILICON FINAL V1-1.30636 IS DISTORTING EXCESSIVELY.
   ELEMENT SILICON FINAL V1-1.4809 IS DISTORTING EXCESSIVELY.
   ELEMENT SILICON FINAL V1-1.5066 IS DISTORTING EXCESSIVELY.
   ELEMENT SILICON FINAL V1-1.5066 IS DISTORTING EXCESSIVELY.
   ELEMENT SILICON FINAL V1-1.5697 IS DISTORTING EXCESSIVELY.
   ELEMENT SILICON FINAL V1-1.6452 IS DISTORTING EXCESSIVELY.
   ELEMENT SILICON FINAL V1-1.7636 IS DISTORTING EXCESSIVELY.
   ELEMENT SILICON FINAL V1-1.7636 IS DISTORTING EXCESSIVELY.
   ELEMENT SILICON FINAL V1-1.7636 IS DISTORTING EXCESSIVELY.
   ELEMENT SILICON FINAL V1-1.7636 IS DISTORTING EXCESSIVELY.
   ELEMENT SILICON FINAL V1-1.7638 IS DISTORTING EXCESSIVELY.
   ELEMENT SILICON FINAL V1-1.7638 IS DISTORTING EXCESSIVELY.
   ELEMENT SILICON FINAL V1-1.7638 IS DISTORTING EXCESSIVELY.
   ELEMENT SILICON FINAL V1-1.7986 IS DISTORTING EXCESSIVELY.
   ELEMENT SILICON FINAL V1-1.8540 IS DISTORTING EXCESSIVELY.
   ELEMENT SILICON FINAL V1-1.8540 IS DISTORTING EXCESSIVELY.
   ELEMENT SILICON FINAL V1-1.8540 IS DISTORTING EXCESSIVELY.
   ELEMENT SILICON FINAL V1-1.8874 IS DISTORTING EXCESSIVELY.
   ELEMENT SILICON FINAL V1-1.8874 IS DISTORTING EXCESSIVELY.
   ELEMENT SILICON FINAL V1-1.8877 IS DISTORTING EXCESSIVELY.
   ELEMENT SILICON FINAL V1-1.8880 IS DISTORTING EXCESSIVELY.
   ELEMENT SILICON FINAL V1-1.8880 IS DISTORTING EXCESSIVELY.
   ELEMENT SILICON FINAL V1-1.9132 IS DISTORTING EXCESSIVELY.
   ELEMENT SILICON FINAL V1-1.9132 IS DISTORTING EXCESSIVELY.
   ELEMENT SILICON FINAL V1-1.9132 IS DISTORTING EXCESSIVELY.
   ELEMENT SILICON FINAL V1-1.9283 IS DISTORTING EXCESSIVELY.
   ELEMENT SILICON FINAL V1-1.9286 IS DISTORTING EXCESSIVELY.
   ELEMENT SILICON FINAL V1-1.9286 IS DISTORTING EXCESSIVELY.
   ELEMENT SILICON FINAL V1-1.9286 IS DISTORTING EXCESSIVELY.
   ELEMENT SILICON FINAL V1-1.9286 IS DISTORTING EXCESSIVELY.
   ELEMENT SILICON FINAL V1-1.9288 IS DISTORTING EXCESSIVELY.
   ELEMENT SILICON FINAL V1-1.10098 IS DISTORTING EXCESSIVELY.
   ELEMENT SILICON FINAL V1-1.10098 IS DISTORTING EXCESSIVELY.
   ELEMENT SILICON FINAL V1-1.10496 IS DISTORTING EXCESSIVELY.
   ELEMENT SILICON FINAL V1-1.10496 IS DISTORTING EXCESSIVELY.
   ELEMENT SILICON FINAL V1-1.10496 IS DISTORTING EXCESSIVELY.
   ELEMENT SILICON FINAL V1-1.10496 IS DISTORTING EXCESSIVELY.
   ELEMENT SILICON FINAL V1-1.10712 IS DISTORTING EXCESSIVELY.
   ELEMENT SILICON FINAL V1-1.10712 IS DISTORTING EXCESSIVELY.
   ELEMENT SILICON FINAL V1-1.10712 IS DISTORTING EXCESSIVELY.
   ELEMENT SILICON FINAL V1-1.10862 IS DISTORTING EXCESSIVELY.
   ELEMENT SILICON FINAL V1-1.10862 IS DISTORTING EXCESSIVELY.
   ELEMENT SILICON FINAL V1-1.10862 IS DISTORTING EXCESSIVELY.
   ELEMENT SILICON FINAL V1-1.11025 IS DISTORTING EXCESSIVELY.
   ELEMENT SILICON FINAL V1-1.11025 IS DISTORTING EXCESSIVELY.
   ELEMENT SILICON FINAL V1-1.11028 IS DISTORTING EXCESSIVELY.
   ELEMENT SILICON FINAL V1-1.11028 IS DISTORTING EXCESSIVELY.
   ELEMENT SILICON FINAL V1-1.11028 IS DISTORTING EXCESSIVELY.
   ELEMENT SILICON FINAL V1-1.11030 IS DISTORTING EXCESSIVELY.
   ELEMENT SILICON FINAL V1-1.11030 IS DISTORTING EXCESSIVELY.
   ELEMENT SILICON FINAL V1-1.11030 IS DISTORTING EXCESSIVELY.
   ELEMENT SILICON FINAL V1-1.11031 IS DISTORTING EXCESSIVELY.
   ELEMENT SILICON FINAL V1-1.11031 IS DISTORTING EXCESSIVELY.
   ELEMENT SILICON FINAL V1-1.11031 IS DISTORTING EXCESSIVELY.
   ELEMENT SILICON FINAL V1-1.12730 IS DISTORTING EXCESSIVELY.
   ELEMENT SILICON FINAL V1-1.12730 IS DISTORTING EXCESSIVELY.
   ELEMENT SILICON FINAL V1-1.12730 IS DISTORTING EXCESSIVELY.
   ELEMENT SILICON FINAL V1-1.15530 IS DISTORTING EXCESSIVELY.
   ELEMENT SILICON FINAL V1-1.15530 IS DISTORTING EXCESSIVELY.
   ELEMENT SILICON FINAL V1-1.15535 IS DISTORTING EXCESSIVELY.
   ELEMENT SILICON FINAL V1-1.15535 IS DISTORTING EXCESSIVELY.
   ELEMENT SILICON FINAL V1-1.15535 IS DISTORTING EXCESSIVELY.
   ELEMENT SILICON FINAL V1-1.17480 IS DISTORTING EXCESSIVELY.
   ELEMENT SILICON FINAL V1-1.17637 IS DISTORTING EXCESSIVELY.
   ELEMENT SILICON FINAL V1-1.17637 IS DISTORTING EXCESSIVELY.
   ELEMENT SILICON FINAL V1-1.18042 IS DISTORTING EXCESSIVELY.
   ELEMENT SILICON FINAL V1-1.18042 IS DISTORTING EXCESSIVELY.
   ELEMENT SILICON FINAL V1-1.18778 IS DISTORTING EXCESSIVELY.
   ELEMENT SILICON FINAL V1-1.18778 IS DISTORTING EXCESSIVELY.
   ELEMENT SILICON FINAL V1-1.18778 IS DISTORTING EXCESSIVELY.
   ELEMENT SILICON FINAL V1-1.18778 IS DISTORTING EXCESSIVELY.
   ELEMENT SILICON FINAL V1-1.19384 IS DISTORTING EXCESSIVELY.
   ELEMENT SILICON FINAL V1-1.19384 IS DISTORTING EXCESSIVELY.
   ELEMENT SILICON FINAL V1-1.19384 IS DISTORTING EXCESSIVELY.
   ELEMENT SILICON FINAL V1-1.22819 IS DISTORTING EXCESSIVELY.
   ELEMENT SILICON FINAL V1-1.23458 IS DISTORTING EXCESSIVELY.
   ELEMENT SILICON FINAL V1-1.23458 IS DISTORTING EXCESSIVELY.
   ELEMENT SILICON FINAL V1-1.23573 IS DISTORTING EXCESSIVELY.
   ELEMENT SILICON FINAL V1-1.23678 IS DISTORTING EXCESSIVELY.
   ELEMENT SILICON FINAL V1-1.23678 IS DISTORTING EXCESSIVELY.
   ELEMENT SILICON FINAL V1-1.23678 IS DISTORTING EXCESSIVELY.
   ELEMENT SILICON FINAL V1-1.23678 IS DISTORTING EXCESSIVELY.
   ELEMENT SILICON FINAL V1-1.23780 IS DISTORTING EXCESSIVELY.
   ELEMENT SILICON FINAL V1-1.23780 IS DISTORTING EXCESSIVELY.
   ELEMENT SILICON FINAL V1-1.23783 IS DISTORTING EXCESSIVELY.
   ELEMENT SILICON FINAL V1-1.23999 IS DISTORTING EXCESSIVELY.
   ELEMENT SILICON FINAL V1-1.24025 IS DISTORTING EXCESSIVELY.
   ELEMENT SILICON FINAL V1-1.24030 IS DISTORTING EXCESSIVELY.
   ELEMENT SILICON FINAL V1-1.24030 IS DISTORTING EXCESSIVELY.
   ELEMENT SILICON FINAL V1-1.24030 IS DISTORTING EXCESSIVELY.
   ELEMENT SILICON FINAL V1-1.24313 IS DISTORTING EXCESSIVELY.
   ELEMENT SILICON FINAL V1-1.24429 IS DISTORTING EXCESSIVELY.
   ELEMENT SILICON FINAL V1-1.24429 IS DISTORTING EXCESSIVELY.
   ELEMENT SILICON FINAL V1-1.24429 IS DISTORTING EXCESSIVELY.
   ELEMENT SILICON FINAL V1-1.24754 IS DISTORTING EXCESSIVELY.
   ELEMENT SILICON FINAL V1-1.24754 IS DISTORTING EXCESSIVELY.
   ELEMENT SILICON FINAL V1-1.24756 IS DISTORTING EXCESSIVELY.
   ELEMENT SILICON FINAL V1-1.24756 IS DISTORTING EXCESSIVELY.
   ELEMENT SILICON FINAL V1-1.24756 IS DISTORTING EXCESSIVELY.
   ELEMENT SILICON FINAL V1-1.24756 IS DISTORTING EXCESSIVELY.
   ELEMENT SILICON FINAL V1-1.24757 IS DISTORTING EXCESSIVELY.
   ELEMENT SILICON FINAL V1-1.24757 IS DISTORTING EXCESSIVELY.
   ELEMENT SILICON FINAL V1-1.24760 IS DISTORTING EXCESSIVELY.
   ELEMENT SILICON FINAL V1-1.24760 IS DISTORTING EXCESSIVELY.
   ELEMENT SILICON FINAL V1-1.24760 IS DISTORTING EXCESSIVELY.
   ELEMENT SILICON FINAL V1-1.25535 IS DISTORTING EXCESSIVELY.
   ELEMENT SILICON FINAL V1-1.25570 IS DISTORTING EXCESSIVELY.
   ELEMENT SILICON FINAL V1-1.25672 IS DISTORTING EXCESSIVELY.
   ELEMENT SILICON FINAL V1-1.25672 IS DISTORTING EXCESSIVELY.
   ELEMENT SILICON FINAL V1-1.26058 IS DISTORTING EXCESSIVELY.
   ELEMENT SILICON FINAL V1-1.26058 IS DISTORTING EXCESSIVELY.
   ELEMENT SILICON FINAL V1-1.27606 IS DISTORTING EXCESSIVELY.
   ELEMENT SILICON FINAL V1-1.27606 IS DISTORTING EXCESSIVELY.
   ELEMENT SILICON FINAL V1-1.27606 IS DISTORTING EXCESSIVELY.
   ELEMENT SILICON FINAL V1-1.28480 IS DISTORTING EXCESSIVELY.
   ELEMENT SILICON FINAL V1-1.28480 IS DISTORTING EXCESSIVELY.
   ELEMENT SILICON FINAL V1-1.28480 IS DISTORTING EXCESSIVELY.
   ELEMENT SILICON FINAL V1-1.28480 IS DISTORTING EXCESSIVELY.
   ELEMENT SILICON FINAL V1-1.29518 IS DISTORTING EXCESSIVELY.
   ELEMENT SILICON FINAL V1-1.29518 IS DISTORTING EXCESSIVELY.
   ELEMENT SILICON FINAL V1-1.29518 IS DISTORTING EXCESSIVELY.
   ELEMENT SILICON FINAL V1-1.30364 IS DISTORTING EXCESSIVELY.
   ELEMENT SILICON FINAL V1-1.4343 IS DISTORTING EXCESSIVELY.
   ELEMENT SILICON FINAL V1-1.4343 IS DISTORTING EXCESSIVELY.
   ELEMENT SILICON FINAL V1-1.6956 IS DISTORTING EXCESSIVELY.
   ELEMENT SILICON FINAL V1-1.6956 IS DISTORTING EXCESSIVELY.
   ELEMENT SILICON FINAL V1-1.6956 IS DISTORTING EXCESSIVELY.
   ELEMENT SILICON FINAL V1-1.7236 IS DISTORTING EXCESSIVELY.
   ELEMENT SILICON FINAL V1-1.7236 IS DISTORTING EXCESSIVELY.
   ELEMENT SILICON FINAL V1-1.7236 IS DISTORTING EXCESSIVELY.
   ELEMENT SILICON FINAL V1-1.7656 IS DISTORTING EXCESSIVELY.
   ELEMENT SILICON FINAL V1-1.7656 IS DISTORTING EXCESSIVELY.
   ELEMENT SILICON FINAL V1-1.7685 IS DISTORTING EXCESSIVELY.
   ELEMENT SILICON FINAL V1-1.7717 IS DISTORTING EXCESSIVELY.
   ELEMENT SILICON FINAL V1-1.8006 IS DISTORTING EXCESSIVELY.
   ELEMENT SILICON FINAL V1-1.8006 IS DISTORTING EXCESSIVELY.
   ELEMENT SILICON FINAL V1-1.8006 IS DISTORTING EXCESSIVELY.
   ELEMENT SILICON FINAL V1-1.8683 IS DISTORTING EXCESSIVELY.
   ELEMENT SILICON FINAL V1-1.8683 IS DISTORTING EXCESSIVELY.
   ELEMENT SILICON FINAL V1-1.8960 IS DISTORTING EXCESSIVELY.
   ELEMENT SILICON FINAL V1-1.8960 IS DISTORTING EXCESSIVELY.
   ELEMENT SILICON FINAL V1-1.8960 IS DISTORTING EXCESSIVELY.
   ELEMENT SILICON FINAL V1-1.9094 IS DISTORTING EXCESSIVELY.
   ELEMENT SILICON FINAL V1-1.9094 IS DISTORTING EXCESSIVELY.
   ELEMENT SILICON FINAL V1-1.9094 IS DISTORTING EXCESSIVELY.
   ELEMENT SILICON FINAL V1-1.9207 IS DISTORTING EXCESSIVELY.
   ELEMENT SILICON FINAL V1-1.9292 IS DISTORTING EXCESSIVELY.
   ELEMENT SILICON FINAL V1-1.9292 IS DISTORTING EXCESSIVELY.
   ELEMENT SILICON FINAL V1-1.9292 IS DISTORTING EXCESSIVELY.
   ELEMENT SILICON FINAL V1-1.9424 IS DISTORTING EXCESSIVELY.
   ELEMENT SILICON FINAL V1-1.9424 IS DISTORTING EXCESSIVELY.
   ELEMENT SILICON FINAL V1-1.9508 IS DISTORTING EXCESSIVELY.
   ELEMENT SILICON FINAL V1-1.9508 IS DISTORTING EXCESSIVELY.
   ELEMENT SILICON FINAL V1-1.10191 IS DISTORTING EXCESSIVELY.
   ELEMENT SILICON FINAL V1-1.10346 IS DISTORTING EXCESSIVELY.
   ELEMENT SILICON FINAL V1-1.10346 IS DISTORTING EXCESSIVELY.
   ELEMENT SILICON FINAL V1-1.10346 IS DISTORTING EXCESSIVELY.
   ELEMENT SILICON FINAL V1-1.10577 IS DISTORTING EXCESSIVELY.
   ELEMENT SILICON FINAL V1-1.10577 IS DISTORTING EXCESSIVELY.
   ELEMENT SILICON FINAL V1-1.10581 IS DISTORTING EXCESSIVELY.
   ELEMENT SILICON FINAL V1-1.10581 IS DISTORTING EXCESSIVELY.
   ELEMENT SILICON FINAL V1-1.10581 IS DISTORTING EXCESSIVELY.
   ELEMENT SILICON FINAL V1-1.10804 IS DISTORTING EXCESSIVELY.
   ELEMENT SILICON FINAL V1-1.10884 IS DISTORTING EXCESSIVELY.
   ELEMENT SILICON FINAL V1-1.10955 IS DISTORTING EXCESSIVELY.
   ELEMENT SILICON FINAL V1-1.10955 IS DISTORTING EXCESSIVELY.
   ELEMENT SILICON FINAL V1-1.10955 IS DISTORTING EXCESSIVELY.
   ELEMENT SILICON FINAL V1-1.10956 IS DISTORTING EXCESSIVELY.
   ELEMENT SILICON FINAL V1-1.10956 IS DISTORTING EXCESSIVELY.
   ELEMENT SILICON FINAL V1-1.10956 IS DISTORTING EXCESSIVELY.
   ELEMENT SILICON FINAL V1-1.11379 IS DISTORTING EXCESSIVELY.
   ELEMENT SILICON FINAL V1-1.11379 IS DISTORTING EXCESSIVELY.
   ELEMENT SILICON FINAL V1-1.11384 IS DISTORTING EXCESSIVELY.
   ELEMENT SILICON FINAL V1-1.12951 IS DISTORTING EXCESSIVELY.
   ELEMENT SILICON FINAL V1-1.12951 IS DISTORTING EXCESSIVELY.
   ELEMENT SILICON FINAL V1-1.14546 IS DISTORTING EXCESSIVELY.
   ELEMENT SILICON FINAL V1-1.14546 IS DISTORTING EXCESSIVELY.
   ELEMENT SILICON FINAL V1-1.14552 IS DISTORTING EXCESSIVELY.
   ELEMENT SILICON FINAL V1-1.16861 IS DISTORTING EXCESSIVELY.
   ELEMENT SILICON FINAL V1-1.16861 IS DISTORTING EXCESSIVELY.
   ELEMENT SILICON FINAL V1-1.16861 IS DISTORTING EXCESSIVELY.
   ELEMENT SILICON FINAL V1-1.17738 IS DISTORTING EXCESSIVELY.
   ELEMENT SILICON FINAL V1-1.18016 IS DISTORTING EXCESSIVELY.
   ELEMENT SILICON FINAL V1-1.18474 IS DISTORTING EXCESSIVELY.
   ELEMENT SILICON FINAL V1-1.19057 IS DISTORTING EXCESSIVELY.
   ELEMENT SILICON FINAL V1-1.19057 IS DISTORTING EXCESSIVELY.
   ELEMENT SILICON FINAL V1-1.19343 IS DISTORTING EXCESSIVELY.
   ELEMENT SILICON FINAL V1-1.19646 IS DISTORTING EXCESSIVELY.
   ELEMENT SILICON FINAL V1-1.20905 IS DISTORTING EXCESSIVELY.
   ELEMENT SILICON FINAL V1-1.20905 IS DISTORTING EXCESSIVELY.
   ELEMENT SILICON FINAL V1-1.22972 IS DISTORTING EXCESSIVELY.
   ELEMENT SILICON FINAL V1-1.22972 IS DISTORTING EXCESSIVELY.
   ELEMENT SILICON FINAL V1-1.22975 IS DISTORTING EXCESSIVELY.
   ELEMENT SILICON FINAL V1-1.22975 IS DISTORTING EXCESSIVELY.
   ELEMENT SILICON FINAL V1-1.22975 IS DISTORTING EXCESSIVELY.
   ELEMENT SILICON FINAL V1-1.23443 IS DISTORTING EXCESSIVELY.
   ELEMENT SILICON FINAL V1-1.23667 IS DISTORTING EXCESSIVELY.
   ELEMENT SILICON FINAL V1-1.23667 IS DISTORTING EXCESSIVELY.
   ELEMENT SILICON FINAL V1-1.23667 IS DISTORTING EXCESSIVELY.
   ELEMENT SILICON FINAL V1-1.23818 IS DISTORTING EXCESSIVELY.
   ELEMENT SILICON FINAL V1-1.23818 IS DISTORTING EXCESSIVELY.
   ELEMENT SILICON FINAL V1-1.23967 IS DISTORTING EXCESSIVELY.
   ELEMENT SILICON FINAL V1-1.23967 IS DISTORTING EXCESSIVELY.
   ELEMENT SILICON FINAL V1-1.23967 IS DISTORTING EXCESSIVELY.
   ELEMENT SILICON FINAL V1-1.24057 IS DISTORTING EXCESSIVELY.
   ELEMENT SILICON FINAL V1-1.24057 IS DISTORTING EXCESSIVELY.
   ELEMENT SILICON FINAL V1-1.24057 IS DISTORTING EXCESSIVELY.
   ELEMENT SILICON FINAL V1-1.24063 IS DISTORTING EXCESSIVELY.
   ELEMENT SILICON FINAL V1-1.24063 IS DISTORTING EXCESSIVELY.
   ELEMENT SILICON FINAL V1-1.24528 IS DISTORTING EXCESSIVELY.
   ELEMENT SILICON FINAL V1-1.24528 IS DISTORTING EXCESSIVELY.
   ELEMENT SILICON FINAL V1-1.24772 IS DISTORTING EXCESSIVELY.
   ELEMENT SILICON FINAL V1-1.24772 IS DISTORTING EXCESSIVELY.
   ELEMENT SILICON FINAL V1-1.24772 IS DISTORTING EXCESSIVELY.
   ELEMENT SILICON FINAL V1-1.24776 IS DISTORTING EXCESSIVELY.
   ELEMENT SILICON FINAL V1-1.24776 IS DISTORTING EXCESSIVELY.
   ELEMENT SILICON FINAL V1-1.25110 IS DISTORTING EXCESSIVELY.
   ELEMENT SILICON FINAL V1-1.25110 IS DISTORTING EXCESSIVELY.
   ELEMENT SILICON FINAL V1-1.25110 IS DISTORTING EXCESSIVELY.
   ELEMENT SILICON FINAL V1-1.25397 IS DISTORTING EXCESSIVELY.
   ELEMENT SILICON FINAL V1-1.25397 IS DISTORTING EXCESSIVELY.
   ELEMENT SILICON FINAL V1-1.25399 IS DISTORTING EXCESSIVELY.
   ELEMENT SILICON FINAL V1-1.25399 IS DISTORTING EXCESSIVELY.
   ELEMENT SILICON FINAL V1-1.25657 IS DISTORTING EXCESSIVELY.
   ELEMENT SILICON FINAL V1-1.25657 IS DISTORTING EXCESSIVELY.
   ELEMENT SILICON FINAL V1-1.25657 IS DISTORTING EXCESSIVELY.
   ELEMENT SILICON FINAL V1-1.27938 IS DISTORTING EXCESSIVELY.
   ELEMENT SILICON FINAL V1-1.28356 IS DISTORTING EXCESSIVELY.
   ELEMENT SILICON FINAL V1-1.29477 IS DISTORTING EXCESSIVELY.
   ELEMENT SILICON FINAL V1-1.29477 IS DISTORTING EXCESSIVELY.
   ELEMENT SILICON FINAL V1-1.29477 IS DISTORTING EXCESSIVELY.
   ELEMENT SILICON FINAL V1-1.29477 IS DISTORTING EXCESSIVELY.
   ELEMENT SILICON FINAL V1-1.29479 IS DISTORTING EXCESSIVELY.
   ELEMENT SILICON FINAL V1-1.29479 IS DISTORTING EXCESSIVELY.
   ELEMENT SILICON FINAL V1-1.29479 IS DISTORTING EXCESSIVELY.
   ELEMENT SILICON FINAL V1-1.29479 IS DISTORTING EXCESSIVELY.
   ELEMENT SILICON FINAL V1-1.813 IS DISTORTING EXCESSIVELY.
   ELEMENT SILICON FINAL V1-1.813 IS DISTORTING EXCESSIVELY.
   ELEMENT SILICON FINAL V1-1.2358 IS DISTORTING EXCESSIVELY.
   ELEMENT SILICON FINAL V1-1.2615 IS DISTORTING EXCESSIVELY.
   ELEMENT SILICON FINAL V1-1.2941 IS DISTORTING EXCESSIVELY.
   ELEMENT SILICON FINAL V1-1.2942 IS DISTORTING EXCESSIVELY.
   ELEMENT SILICON FINAL V1-1.4634 IS DISTORTING EXCESSIVELY.
   ELEMENT SILICON FINAL V1-1.4636 IS DISTORTING EXCESSIVELY.
   ELEMENT SILICON FINAL V1-1.6535 IS DISTORTING EXCESSIVELY.
   ELEMENT SILICON FINAL V1-1.6535 IS DISTORTING EXCESSIVELY.
   ELEMENT SILICON FINAL V1-1.6966 IS DISTORTING EXCESSIVELY.
   ELEMENT SILICON FINAL V1-1.6966 IS DISTORTING EXCESSIVELY.
   ELEMENT SILICON FINAL V1-1.7218 IS DISTORTING EXCESSIVELY.
   ELEMENT SILICON FINAL V1-1.7218 IS DISTORTING EXCESSIVELY.
   ELEMENT SILICON FINAL V1-1.7218 IS DISTORTING EXCESSIVELY.
   ELEMENT SILICON FINAL V1-1.7573 IS DISTORTING EXCESSIVELY.
   ELEMENT SILICON FINAL V1-1.7665 IS DISTORTING EXCESSIVELY.
   ELEMENT SILICON FINAL V1-1.7665 IS DISTORTING EXCESSIVELY.
   ELEMENT SILICON FINAL V1-1.7665 IS DISTORTING EXCESSIVELY.
   ELEMENT SILICON FINAL V1-1.7666 IS DISTORTING EXCESSIVELY.
   ELEMENT SILICON FINAL V1-1.7978 IS DISTORTING EXCESSIVELY.
   ELEMENT SILICON FINAL V1-1.7978 IS DISTORTING EXCESSIVELY.
   ELEMENT SILICON FINAL V1-1.7981 IS DISTORTING EXCESSIVELY.
   ELEMENT SILICON FINAL V1-1.7981 IS DISTORTING EXCESSIVELY.
   ELEMENT SILICON FINAL V1-1.7981 IS DISTORTING EXCESSIVELY.
   ELEMENT SILICON FINAL V1-1.7981 IS DISTORTING EXCESSIVELY.
   ELEMENT SILICON FINAL V1-1.8809 IS DISTORTING EXCESSIVELY.
   ELEMENT SILICON FINAL V1-1.8971 IS DISTORTING EXCESSIVELY.
   ELEMENT SILICON FINAL V1-1.8971 IS DISTORTING EXCESSIVELY.
   ELEMENT SILICON FINAL V1-1.8975 IS DISTORTING EXCESSIVELY.
   ELEMENT SILICON FINAL V1-1.8975 IS DISTORTING EXCESSIVELY.
   ELEMENT SILICON FINAL V1-1.8975 IS DISTORTING EXCESSIVELY.
   ELEMENT SILICON FINAL V1-1.9185 IS DISTORTING EXCESSIVELY.
   ELEMENT SILICON FINAL V1-1.9186 IS DISTORTING EXCESSIVELY.
   ELEMENT SILICON FINAL V1-1.9186 IS DISTORTING EXCESSIVELY.
   ELEMENT SILICON FINAL V1-1.9358 IS DISTORTING EXCESSIVELY.
   ELEMENT SILICON FINAL V1-1.9358 IS DISTORTING EXCESSIVELY.
   ELEMENT SILICON FINAL V1-1.9471 IS DISTORTING EXCESSIVELY.
   ELEMENT SILICON FINAL V1-1.9471 IS DISTORTING EXCESSIVELY.
   ELEMENT SILICON FINAL V1-1.9471 IS DISTORTING EXCESSIVELY.
   ELEMENT SILICON FINAL V1-1.10282 IS DISTORTING EXCESSIVELY.
   ELEMENT SILICON FINAL V1-1.10282 IS DISTORTING EXCESSIVELY.
   ELEMENT SILICON FINAL V1-1.10282 IS DISTORTING EXCESSIVELY.
   ELEMENT SILICON FINAL V1-1.10572 IS DISTORTING EXCESSIVELY.
   ELEMENT SILICON FINAL V1-1.10650 IS DISTORTING EXCESSIVELY.
   ELEMENT SILICON FINAL V1-1.10650 IS DISTORTING EXCESSIVELY.
   ELEMENT SILICON FINAL V1-1.10650 IS DISTORTING EXCESSIVELY.
   ELEMENT SILICON FINAL V1-1.10765 IS DISTORTING EXCESSIVELY.
   ELEMENT SILICON FINAL V1-1.10765 IS DISTORTING EXCESSIVELY.
   ELEMENT SILICON FINAL V1-1.10948 IS DISTORTING EXCESSIVELY.
   ELEMENT SILICON FINAL V1-1.10948 IS DISTORTING EXCESSIVELY.
   ELEMENT SILICON FINAL V1-1.10948 IS DISTORTING EXCESSIVELY.
   ELEMENT SILICON FINAL V1-1.10950 IS DISTORTING EXCESSIVELY.
   ELEMENT SILICON FINAL V1-1.10950 IS DISTORTING EXCESSIVELY.
   ELEMENT SILICON FINAL V1-1.10950 IS DISTORTING EXCESSIVELY.
   ELEMENT SILICON FINAL V1-1.11208 IS DISTORTING EXCESSIVELY.
   ELEMENT SILICON FINAL V1-1.11208 IS DISTORTING EXCESSIVELY.
   ELEMENT SILICON FINAL V1-1.12976 IS DISTORTING EXCESSIVELY.
   ELEMENT SILICON FINAL V1-1.16449 IS DISTORTING EXCESSIVELY.
   ELEMENT SILICON FINAL V1-1.16449 IS DISTORTING EXCESSIVELY.
   ELEMENT SILICON FINAL V1-1.17468 IS DISTORTING EXCESSIVELY.
   ELEMENT SILICON FINAL V1-1.17628 IS DISTORTING EXCESSIVELY.
   ELEMENT SILICON FINAL V1-1.17628 IS DISTORTING EXCESSIVELY.
   ELEMENT SILICON FINAL V1-1.18360 IS DISTORTING EXCESSIVELY.
   ELEMENT SILICON FINAL V1-1.18619 IS DISTORTING EXCESSIVELY.
   ELEMENT SILICON FINAL V1-1.19175 IS DISTORTING EXCESSIVELY.
   ELEMENT SILICON FINAL V1-1.19175 IS DISTORTING EXCESSIVELY.
   ELEMENT SILICON FINAL V1-1.19350 IS DISTORTING EXCESSIVELY.
   ELEMENT SILICON FINAL V1-1.19586 IS DISTORTING EXCESSIVELY.
   ELEMENT SILICON FINAL V1-1.19784 IS DISTORTING EXCESSIVELY.
   ELEMENT SILICON FINAL V1-1.19784 IS DISTORTING EXCESSIVELY.
   ELEMENT SILICON FINAL V1-1.22886 IS DISTORTING EXCESSIVELY.
   ELEMENT SILICON FINAL V1-1.22886 IS DISTORTING EXCESSIVELY.
   ELEMENT SILICON FINAL V1-1.22886 IS DISTORTING EXCESSIVELY.
   ELEMENT SILICON FINAL V1-1.23437 IS DISTORTING EXCESSIVELY.
   ELEMENT SILICON FINAL V1-1.23553 IS DISTORTING EXCESSIVELY.
   ELEMENT SILICON FINAL V1-1.23553 IS DISTORTING EXCESSIVELY.
   ELEMENT SILICON FINAL V1-1.23553 IS DISTORTING EXCESSIVELY.
   ELEMENT SILICON FINAL V1-1.23802 IS DISTORTING EXCESSIVELY.
   ELEMENT SILICON FINAL V1-1.23802 IS DISTORTING EXCESSIVELY.
   ELEMENT SILICON FINAL V1-1.23802 IS DISTORTING EXCESSIVELY.
   ELEMENT SILICON FINAL V1-1.23910 IS DISTORTING EXCESSIVELY.
   ELEMENT SILICON FINAL V1-1.23910 IS DISTORTING EXCESSIVELY.
   ELEMENT SILICON FINAL V1-1.23910 IS DISTORTING EXCESSIVELY.
   ELEMENT SILICON FINAL V1-1.24020 IS DISTORTING EXCESSIVELY.
   ELEMENT SILICON FINAL V1-1.24046 IS DISTORTING EXCESSIVELY.
   ELEMENT SILICON FINAL V1-1.24169 IS DISTORTING EXCESSIVELY.
   ELEMENT SILICON FINAL V1-1.24170 IS DISTORTING EXCESSIVELY.
   ELEMENT SILICON FINAL V1-1.24170 IS DISTORTING EXCESSIVELY.
   ELEMENT SILICON FINAL V1-1.24170 IS DISTORTING EXCESSIVELY.
   ELEMENT SILICON FINAL V1-1.24172 IS DISTORTING EXCESSIVELY.
   ELEMENT SILICON FINAL V1-1.24172 IS DISTORTING EXCESSIVELY.
   ELEMENT SILICON FINAL V1-1.24172 IS DISTORTING EXCESSIVELY.
   ELEMENT SILICON FINAL V1-1.24174 IS DISTORTING EXCESSIVELY.
   ELEMENT SILICON FINAL V1-1.24803 IS DISTORTING EXCESSIVELY.
   ELEMENT SILICON FINAL V1-1.24957 IS DISTORTING EXCESSIVELY.
   ELEMENT SILICON FINAL V1-1.24957 IS DISTORTING EXCESSIVELY.
   ELEMENT SILICON FINAL V1-1.25101 IS DISTORTING EXCESSIVELY.
   ELEMENT SILICON FINAL V1-1.25234 IS DISTORTING EXCESSIVELY.
   ELEMENT SILICON FINAL V1-1.25419 IS DISTORTING EXCESSIVELY.
   ELEMENT SILICON FINAL V1-1.25442 IS DISTORTING EXCESSIVELY.
   ELEMENT SILICON FINAL V1-1.25442 IS DISTORTING EXCESSIVELY.
   ELEMENT SILICON FINAL V1-1.25442 IS DISTORTING EXCESSIVELY.
   ELEMENT SILICON FINAL V1-1.25445 IS DISTORTING EXCESSIVELY.
   ELEMENT SILICON FINAL V1-1.25445 IS DISTORTING EXCESSIVELY.
   ELEMENT SILICON FINAL V1-1.25445 IS DISTORTING EXCESSIVELY.
   ELEMENT SILICON FINAL V1-1.27088 IS DISTORTING EXCESSIVELY.
   ELEMENT SILICON FINAL V1-1.27088 IS DISTORTING EXCESSIVELY.
   ELEMENT SILICON FINAL V1-1.27088 IS DISTORTING EXCESSIVELY.
   ELEMENT SILICON FINAL V1-1.27559 IS DISTORTING EXCESSIVELY.
   ELEMENT SILICON FINAL V1-1.28233 IS DISTORTING EXCESSIVELY.
   ELEMENT SILICON FINAL V1-1.28233 IS DISTORTING EXCESSIVELY.
   ELEMENT SILICON FINAL V1-1.28233 IS DISTORTING EXCESSIVELY.
   ELEMENT SILICON FINAL V1-1.29490 IS DISTORTING EXCESSIVELY.
   ELEMENT SILICON FINAL V1-1.29610 IS DISTORTING EXCESSIVELY.
   ELEMENT SILICON FINAL V1-1.29610 IS DISTORTING EXCESSIVELY.
   ELEMENT SILICON FINAL V1-1.30176 IS DISTORTING EXCESSIVELY.
   ELEMENT SILICON FINAL V1-1.30176 IS DISTORTING EXCESSIVELY.

 ***WARNING: EXCESSIVE DISTORTION AT A TOTAL OF 930 INTEGRATION POINTS IN SOLID 
             (CONTINUUM) ELEMENTS
 

 ***NOTE: ELEMENTS ARE DISTORTING EXCESSIVELY. CONVERGENCE IS JUDGED UNLIKELY.


  INCREMENT     1 STARTS. ATTEMPT NUMBER  2, TIME INCREMENT  0.750    
 
	SYMMETRIC DIRECT SPARSE SOLVER RUNNING ON
 	1 HOST:        1 MPI RANK  x 8 THREADS
 	NUMBER OF EQUATIONS:     186250
 	NUMBER OF RHS:           1
 	NUMBER OF FLOPS:         1.051e+11

     CHECK POINT   START OF SOLVER    

     CHECK POINT  END OF SOLVER       

       ELAPSED USER TIME (SEC)      =   5.3000    
       ELAPSED SYSTEM TIME (SEC)    =   0.0000    
       ELAPSED TOTAL CPU TIME (SEC) =   5.3000    
       ELAPSED WALLCLOCK TIME (SEC) =          1
 

 ***WARNING: THE SYSTEM MATRIX HAS 2 NEGATIVE EIGENVALUES.
             EXPLANATIONS ARE SUGGESTED AFTER THE FIRST OCCURRENCE OF THIS MESSAGE.

               CONVERGENCE CHECKS FOR EQUILIBRIUM ITERATION     1


 AVERAGE FORCE                       28.7       TIME AVG. FORCE        28.7    
 LARGEST RESIDUAL FORCE             -135.       AT NODE      46480   DOF  1
   INSTANCE: silicon final v1-1                                                              
 LARGEST INCREMENT OF DISP.         -127.       AT NODE      33004   DOF  3
   INSTANCE: silicon final v1-1                                                              
 LARGEST CORRECTION TO DISP.        -127.       AT NODE      33004   DOF  3
   INSTANCE: silicon final v1-1                                                              
          FORCE     EQUILIBRIUM NOT ACHIEVED WITHIN TOLERANCE.

 COMPATIBILITY ERRORS:
    TYPE                NUMBER EXCEEDING TOLERANCE  MAXIMUM ERROR        IN ELEMENT
 VOLUMETRIC                      29134               -1.257E-01              19301
   INSTANCE: silicon final v1-1                                                              
 
	SYMMETRIC DIRECT SPARSE SOLVER RUNNING ON
 	1 HOST:        1 MPI RANK  x 8 THREADS
 	NUMBER OF EQUATIONS:     186250
 	NUMBER OF RHS:           1
 	NUMBER OF FLOPS:         1.051e+11

     CHECK POINT   START OF SOLVER    

     CHECK POINT  END OF SOLVER       

       ELAPSED USER TIME (SEC)      =   6.0000    
       ELAPSED SYSTEM TIME (SEC)    =  0.10000    
       ELAPSED TOTAL CPU TIME (SEC) =   6.1000    
       ELAPSED WALLCLOCK TIME (SEC) =          2

               CONVERGENCE CHECKS FOR EQUILIBRIUM ITERATION     2


 AVERAGE FORCE                       10.8       TIME AVG. FORCE        10.8    
 LARGEST RESIDUAL FORCE             -13.1       AT NODE      29672   DOF  1
   INSTANCE: silicon final v1-1                                                              
 LARGEST INCREMENT OF DISP.         -112.       AT NODE      33004   DOF  3
   INSTANCE: silicon final v1-1                                                              
 LARGEST CORRECTION TO DISP.         56.5       AT NODE      47154   DOF  1
   INSTANCE: silicon final v1-1                                                              
          FORCE     EQUILIBRIUM NOT ACHIEVED WITHIN TOLERANCE.

 COMPATIBILITY ERRORS:
    TYPE                NUMBER EXCEEDING TOLERANCE  MAXIMUM ERROR        IN ELEMENT
 VOLUMETRIC                      23056               -1.433E-02              19301
   INSTANCE: silicon final v1-1                                                              
 
	SYMMETRIC DIRECT SPARSE SOLVER RUNNING ON
 	1 HOST:        1 MPI RANK  x 8 THREADS
 	NUMBER OF EQUATIONS:     186250
 	NUMBER OF RHS:           1
 	NUMBER OF FLOPS:         1.051e+11

     CHECK POINT   START OF SOLVER    

     CHECK POINT  END OF SOLVER       

       ELAPSED USER TIME (SEC)      =   6.0000    
       ELAPSED SYSTEM TIME (SEC)    =   0.0000    
       ELAPSED TOTAL CPU TIME (SEC) =   6.0000    
       ELAPSED WALLCLOCK TIME (SEC) =          2

               CONVERGENCE CHECKS FOR EQUILIBRIUM ITERATION     3


 AVERAGE FORCE                       9.05       TIME AVG. FORCE        9.05    
 LARGEST RESIDUAL FORCE            -0.151       AT NODE      29670   DOF  3
   INSTANCE: silicon final v1-1                                                              
 LARGEST INCREMENT OF DISP.         -110.       AT NODE      33004   DOF  3
   INSTANCE: silicon final v1-1                                                              
 LARGEST CORRECTION TO DISP.        -5.83       AT NODE        440   DOF  1
   INSTANCE: silicon final v1-1                                                              
          FORCE     EQUILIBRIUM NOT ACHIEVED WITHIN TOLERANCE.

 COMPATIBILITY ERRORS:
    TYPE                NUMBER EXCEEDING TOLERANCE  MAXIMUM ERROR        IN ELEMENT
 VOLUMETRIC                       5334               -1.113E-04              19301
   INSTANCE: silicon final v1-1                                                              
 
	SYMMETRIC DIRECT SPARSE SOLVER RUNNING ON
 	1 HOST:        1 MPI RANK  x 8 THREADS
 	NUMBER OF EQUATIONS:     186250
 	NUMBER OF RHS:           1
 	NUMBER OF FLOPS:         1.051e+11

     CHECK POINT   START OF SOLVER    

     CHECK POINT  END OF SOLVER       

       ELAPSED USER TIME (SEC)      =   5.7000    
       ELAPSED SYSTEM TIME (SEC)    =   0.0000    
       ELAPSED TOTAL CPU TIME (SEC) =   5.7000    
       ELAPSED WALLCLOCK TIME (SEC) =          1

               CONVERGENCE CHECKS FOR EQUILIBRIUM ITERATION     4


 AVERAGE FORCE                       9.03       TIME AVG. FORCE        9.03    
 LARGEST RESIDUAL FORCE            -1.803E-05   AT NODE      32393   DOF  3
   INSTANCE: silicon final v1-1                                                              
 LARGEST INCREMENT OF DISP.         -110.       AT NODE      33004   DOF  3
   INSTANCE: silicon final v1-1                                                              
 LARGEST CORRECTION TO DISP.       -2.004E-02   AT NODE      47093   DOF  1
   INSTANCE: silicon final v1-1                                                              
          THE FORCE     EQUILIBRIUM EQUATIONS HAVE CONVERGED

 COMPATIBILITY ERRORS:
    TYPE                NUMBER EXCEEDING TOLERANCE  MAXIMUM ERROR        IN ELEMENT
 VOLUMETRIC                          0               -7.687E-09              19301
   INSTANCE: silicon final v1-1                                                              

 ITERATION SUMMARY FOR THE INCREMENT:   4 TOTAL ITERATIONS, OF WHICH
   0 ARE SEVERE DISCONTINUITY ITERATIONS AND  4 ARE EQUILIBRIUM ITERATIONS.

 TIME INCREMENT COMPLETED  0.750    ,  FRACTION OF STEP COMPLETED  0.250    
 STEP TIME COMPLETED       0.750    ,  TOTAL TIME COMPLETED        0.750    


  INCREMENT     2 STARTS. ATTEMPT NUMBER  1, TIME INCREMENT  0.750    
 
	SYMMETRIC DIRECT SPARSE SOLVER RUNNING ON
 	1 HOST:        1 MPI RANK  x 8 THREADS
 	NUMBER OF EQUATIONS:     186250
 	NUMBER OF RHS:           1
 	NUMBER OF FLOPS:         1.051e+11

     CHECK POINT   START OF SOLVER    

     CHECK POINT  END OF SOLVER       

       ELAPSED USER TIME (SEC)      =   6.7000    
       ELAPSED SYSTEM TIME (SEC)    =   0.0000    
       ELAPSED TOTAL CPU TIME (SEC) =   6.7000    
       ELAPSED WALLCLOCK TIME (SEC) =          2
 

 ***WARNING: THE SYSTEM MATRIX HAS 1 NEGATIVE EIGENVALUES.
             EXPLANATIONS ARE SUGGESTED AFTER THE FIRST OCCURRENCE OF THIS MESSAGE.

               CONVERGENCE CHECKS FOR EQUILIBRIUM ITERATION     1


 AVERAGE FORCE                       40.5       TIME AVG. FORCE        24.8    
 LARGEST RESIDUAL FORCE              107.       AT NODE      29671   DOF  3
   INSTANCE: silicon final v1-1                                                              
 LARGEST INCREMENT OF DISP.         -175.       AT NODE       1108   DOF  1
   INSTANCE: silicon final v1-1                                                              
 LARGEST CORRECTION TO DISP.        -130.       AT NODE      47615   DOF  3
   INSTANCE: silicon final v1-1                                                              
          FORCE     EQUILIBRIUM NOT ACHIEVED WITHIN TOLERANCE.

 COMPATIBILITY ERRORS:
    TYPE                NUMBER EXCEEDING TOLERANCE  MAXIMUM ERROR        IN ELEMENT
 VOLUMETRIC                      29073               -4.095E-02               7718
   INSTANCE: silicon final v1-1                                                              
 
	SYMMETRIC DIRECT SPARSE SOLVER RUNNING ON
 	1 HOST:        1 MPI RANK  x 8 THREADS
 	NUMBER OF EQUATIONS:     186250
 	NUMBER OF RHS:           1
 	NUMBER OF FLOPS:         1.051e+11

     CHECK POINT   START OF SOLVER    

     CHECK POINT  END OF SOLVER       

       ELAPSED USER TIME (SEC)      =   5.6000    
       ELAPSED SYSTEM TIME (SEC)    =   0.0000    
       ELAPSED TOTAL CPU TIME (SEC) =   5.6000    
       ELAPSED WALLCLOCK TIME (SEC) =          2

               CONVERGENCE CHECKS FOR EQUILIBRIUM ITERATION     2


 AVERAGE FORCE                       27.9       TIME AVG. FORCE        18.5    
 LARGEST RESIDUAL FORCE             -7.01       AT NODE      30821   DOF  3
   INSTANCE: silicon final v1-1                                                              
 LARGEST INCREMENT OF DISP.         -176.       AT NODE      15256   DOF  3
   INSTANCE: silicon final v1-1                                                              
 LARGEST CORRECTION TO DISP.         43.8       AT NODE       2399   DOF  1
   INSTANCE: silicon final v1-1                                                              
          FORCE     EQUILIBRIUM NOT ACHIEVED WITHIN TOLERANCE.

 COMPATIBILITY ERRORS:
    TYPE                NUMBER EXCEEDING TOLERANCE  MAXIMUM ERROR        IN ELEMENT
 VOLUMETRIC                      23642               -3.061E-03               1925
   INSTANCE: silicon final v1-1                                                              
 
	SYMMETRIC DIRECT SPARSE SOLVER RUNNING ON
 	1 HOST:        1 MPI RANK  x 8 THREADS
 	NUMBER OF EQUATIONS:     186250
 	NUMBER OF RHS:           1
 	NUMBER OF FLOPS:         1.051e+11

     CHECK POINT   START OF SOLVER    

     CHECK POINT  END OF SOLVER       

       ELAPSED USER TIME (SEC)      =   6.1000    
       ELAPSED SYSTEM TIME (SEC)    =   0.0000    
       ELAPSED TOTAL CPU TIME (SEC) =   6.1000    
       ELAPSED WALLCLOCK TIME (SEC) =          2

               CONVERGENCE CHECKS FOR EQUILIBRIUM ITERATION     3


 AVERAGE FORCE                       27.2       TIME AVG. FORCE        18.1    
 LARGEST RESIDUAL FORCE            -9.562E-03   AT NODE      46623   DOF  3
   INSTANCE: silicon final v1-1                                                              
 LARGEST INCREMENT OF DISP.         -176.       AT NODE      15256   DOF  3
   INSTANCE: silicon final v1-1                                                              
 LARGEST CORRECTION TO DISP.        -2.74       AT NODE        441   DOF  1
   INSTANCE: silicon final v1-1                                                              
 ESTIMATE OF DISP.    CORRECTION   -3.739E-03
 FORCE     EQUILIB. ACCEPTED BASED ON SMALL RESIDUAL AND ESTIMATED CORRECTION

 COMPATIBILITY ERRORS:
    TYPE                NUMBER EXCEEDING TOLERANCE  MAXIMUM ERROR        IN ELEMENT
 VOLUMETRIC                          1               -1.047E-05               1728
   INSTANCE: silicon final v1-1                                                              
 
	SYMMETRIC DIRECT SPARSE SOLVER RUNNING ON
 	1 HOST:        1 MPI RANK  x 8 THREADS
 	NUMBER OF EQUATIONS:     186250
 	NUMBER OF RHS:           1
 	NUMBER OF FLOPS:         1.051e+11

     CHECK POINT   START OF SOLVER    

     CHECK POINT  END OF SOLVER       

       ELAPSED USER TIME (SEC)      =   5.6000    
       ELAPSED SYSTEM TIME (SEC)    =  0.10000    
       ELAPSED TOTAL CPU TIME (SEC) =   5.7000    
       ELAPSED WALLCLOCK TIME (SEC) =          1

               CONVERGENCE CHECKS FOR EQUILIBRIUM ITERATION     4


 AVERAGE FORCE                       27.8       TIME AVG. FORCE        18.4    
 LARGEST RESIDUAL FORCE            -7.783E-07   AT NODE      39496   DOF  2
   INSTANCE: silicon final v1-1                                                              
 LARGEST INCREMENT OF DISP.         -176.       AT NODE      15256   DOF  3
   INSTANCE: silicon final v1-1                                                              
 LARGEST CORRECTION TO DISP.        3.064E-03   AT NODE        464   DOF  3
   INSTANCE: silicon final v1-1                                                              
          THE FORCE     EQUILIBRIUM EQUATIONS HAVE CONVERGED

 COMPATIBILITY ERRORS:
    TYPE                NUMBER EXCEEDING TOLERANCE  MAXIMUM ERROR        IN ELEMENT
 VOLUMETRIC                          0               -9.820E-11              19102
   INSTANCE: silicon final v1-1                                                              
          TIME INCREMENT MAY NOW INCREASE TO     1.12    

 ITERATION SUMMARY FOR THE INCREMENT:   4 TOTAL ITERATIONS, OF WHICH
   0 ARE SEVERE DISCONTINUITY ITERATIONS AND  4 ARE EQUILIBRIUM ITERATIONS.

 TIME INCREMENT COMPLETED  0.750    ,  FRACTION OF STEP COMPLETED  0.500    
 STEP TIME COMPLETED        1.50    ,  TOTAL TIME COMPLETED         1.50    


  INCREMENT     3 STARTS. ATTEMPT NUMBER  1, TIME INCREMENT   1.12    
 
	SYMMETRIC DIRECT SPARSE SOLVER RUNNING ON
 	1 HOST:        1 MPI RANK  x 8 THREADS
 	NUMBER OF EQUATIONS:     186250
 	NUMBER OF RHS:           1
 	NUMBER OF FLOPS:         1.051e+11

     CHECK POINT   START OF SOLVER    

     CHECK POINT  END OF SOLVER       

       ELAPSED USER TIME (SEC)      =   6.2000    
       ELAPSED SYSTEM TIME (SEC)    =   0.0000    
       ELAPSED TOTAL CPU TIME (SEC) =   6.2000    
       ELAPSED WALLCLOCK TIME (SEC) =          2
 

 ***WARNING: THE SYSTEM MATRIX HAS 80 NEGATIVE EIGENVALUES.
             EXPLANATIONS ARE SUGGESTED AFTER THE FIRST OCCURRENCE OF THIS MESSAGE.
   ELEMENT SILICON FINAL V1-1.38 IS DISTORTING EXCESSIVELY.
   ELEMENT SILICON FINAL V1-1.38 IS DISTORTING EXCESSIVELY.
   ELEMENT SILICON FINAL V1-1.38 IS DISTORTING EXCESSIVELY.
   ELEMENT SILICON FINAL V1-1.320 IS DISTORTING EXCESSIVELY.
   ELEMENT SILICON FINAL V1-1.320 IS DISTORTING EXCESSIVELY.
   ELEMENT SILICON FINAL V1-1.320 IS DISTORTING EXCESSIVELY.
   ELEMENT SILICON FINAL V1-1.435 IS DISTORTING EXCESSIVELY.
   ELEMENT SILICON FINAL V1-1.435 IS DISTORTING EXCESSIVELY.
   ELEMENT SILICON FINAL V1-1.532 IS DISTORTING EXCESSIVELY.
   ELEMENT SILICON FINAL V1-1.532 IS DISTORTING EXCESSIVELY.
   ELEMENT SILICON FINAL V1-1.532 IS DISTORTING EXCESSIVELY.
   ELEMENT SILICON FINAL V1-1.532 IS DISTORTING EXCESSIVELY.
   ELEMENT SILICON FINAL V1-1.533 IS DISTORTING EXCESSIVELY.
   ELEMENT SILICON FINAL V1-1.533 IS DISTORTING EXCESSIVELY.
   ELEMENT SILICON FINAL V1-1.533 IS DISTORTING EXCESSIVELY.
   ELEMENT SILICON FINAL V1-1.533 IS DISTORTING EXCESSIVELY.
   ELEMENT SILICON FINAL V1-1.534 IS DISTORTING EXCESSIVELY.
   ELEMENT SILICON FINAL V1-1.534 IS DISTORTING EXCESSIVELY.
   ELEMENT SILICON FINAL V1-1.534 IS DISTORTING EXCESSIVELY.
   ELEMENT SILICON FINAL V1-1.534 IS DISTORTING EXCESSIVELY.
[...]
 LARGEST RESIDUAL FORCE             7.318E-06   AT NODE      51718   DOF  2
   INSTANCE: silicon final v1-1                                                              
 LARGEST INCREMENT OF DISP.         5.977E-03   AT NODE        689   DOF  3
   INSTANCE: silicon final v1-1                                                              
 LARGEST CORRECTION TO DISP.       -5.681E-03   AT NODE        689   DOF  3
   INSTANCE: silicon final v1-1                                                              
          DISP.    CORRECTION TOO LARGE COMPARED TO DISP.    INCREMENT

 COMPATIBILITY ERRORS:
    TYPE                NUMBER EXCEEDING TOLERANCE  MAXIMUM ERROR        IN ELEMENT
 VOLUMETRIC                          0               -4.582E-09              30777
   INSTANCE: silicon final v1-1                                                              
 
	SYMMETRIC DIRECT SPARSE SOLVER RUNNING ON
 	1 HOST:        1 MPI RANK  x 8 THREADS
 	NUMBER OF EQUATIONS:     186250
 	NUMBER OF RHS:           1
 	NUMBER OF FLOPS:         1.054e+11

     CHECK POINT   START OF SOLVER    

     CHECK POINT  END OF SOLVER       

       ELAPSED USER TIME (SEC)      =   5.7000    
       ELAPSED SYSTEM TIME (SEC)    =   0.0000    
       ELAPSED TOTAL CPU TIME (SEC) =   5.7000    
       ELAPSED WALLCLOCK TIME (SEC) =          2

               CONVERGENCE CHECKS FOR EQUILIBRIUM ITERATION     5


 AVERAGE FORCE                       173.       TIME AVG. FORCE        130.    
 LARGEST RESIDUAL FORCE             3.227E-05   AT NODE      51718   DOF  2
   INSTANCE: silicon final v1-1                                                              
 LARGEST INCREMENT OF DISP.         1.791E-02   AT NODE        689   DOF  3
   INSTANCE: silicon final v1-1                                                              
 LARGEST CORRECTION TO DISP.        1.193E-02   AT NODE        689   DOF  3
   INSTANCE: silicon final v1-1                                                              
          DISP.    CORRECTION TOO LARGE COMPARED TO DISP.    INCREMENT

 COMPATIBILITY ERRORS:
    TYPE                NUMBER EXCEEDING TOLERANCE  MAXIMUM ERROR        IN ELEMENT
 VOLUMETRIC                          0               -2.021E-08              30777
   INSTANCE: silicon final v1-1                                                              
 

 ***NOTE: THE SOLUTION APPEARS TO BE DIVERGING. CONVERGENCE IS JUDGED UNLIKELY.


  INCREMENT    28 STARTS. ATTEMPT NUMBER  2, TIME INCREMENT  1.000E-08
 
	SYMMETRIC DIRECT SPARSE SOLVER RUNNING ON
 	1 HOST:        1 MPI RANK  x 8 THREADS
 	NUMBER OF EQUATIONS:     186250
 	NUMBER OF RHS:           1
 	NUMBER OF FLOPS:         1.054e+11

     CHECK POINT   START OF SOLVER    

     CHECK POINT  END OF SOLVER       

       ELAPSED USER TIME (SEC)      =   5.9000    
       ELAPSED SYSTEM TIME (SEC)    =   0.0000    
       ELAPSED TOTAL CPU TIME (SEC) =   5.9000    
       ELAPSED WALLCLOCK TIME (SEC) =          2

               CONVERGENCE CHECKS FOR EQUILIBRIUM ITERATION     1


 AVERAGE FORCE                       173.       TIME AVG. FORCE        130.    
 LARGEST RESIDUAL FORCE             4.757E-07   AT NODE      39524   DOF  2
   INSTANCE: silicon final v1-1                                                              
 LARGEST INCREMENT OF DISP.         2.652E-03   AT NODE        689   DOF  3
   INSTANCE: silicon final v1-1                                                              
 LARGEST CORRECTION TO DISP.        7.653E-04   AT NODE        689   DOF  3
   INSTANCE: silicon final v1-1                                                              
          THE FORCE     EQUILIBRIUM RESPONSE WAS LINEAR IN THIS INCREMENT

 COMPATIBILITY ERRORS:
    TYPE                NUMBER EXCEEDING TOLERANCE  MAXIMUM ERROR        IN ELEMENT
 VOLUMETRIC                          0               -8.316E-11              30777
   INSTANCE: silicon final v1-1                                                              
          TIME INCREMENT MAY NOW INCREASE TO    1.500E-08

 ITERATION SUMMARY FOR THE INCREMENT:   1 TOTAL ITERATIONS, OF WHICH
   0 ARE SEVERE DISCONTINUITY ITERATIONS AND  1 ARE EQUILIBRIUM ITERATIONS.

 TIME INCREMENT COMPLETED  1.0000000E-08,  FRACTION OF STEP COMPLETED  0.9550222    
 STEP TIME COMPLETED        2.865066    ,  TOTAL TIME COMPLETED         2.865066    


  INCREMENT    29 STARTS. ATTEMPT NUMBER  1, TIME INCREMENT  1.500E-08
 
	SYMMETRIC DIRECT SPARSE SOLVER RUNNING ON
 	1 HOST:        1 MPI RANK  x 8 THREADS
 	NUMBER OF EQUATIONS:     186250
 	NUMBER OF RHS:           1
 	NUMBER OF FLOPS:         1.054e+11

     CHECK POINT   START OF SOLVER    

     CHECK POINT  END OF SOLVER       

       ELAPSED USER TIME (SEC)      =   5.9000    
       ELAPSED SYSTEM TIME (SEC)    =   0.0000    
       ELAPSED TOTAL CPU TIME (SEC) =   5.9000    
       ELAPSED WALLCLOCK TIME (SEC) =          2

               CONVERGENCE CHECKS FOR EQUILIBRIUM ITERATION     1


 AVERAGE FORCE                       173.       TIME AVG. FORCE        132.    
 LARGEST RESIDUAL FORCE             4.178E-05   AT NODE      51718   DOF  2
   INSTANCE: silicon final v1-1                                                              
 LARGEST INCREMENT OF DISP.         1.755E-02   AT NODE        689   DOF  3
   INSTANCE: silicon final v1-1                                                              
 LARGEST CORRECTION TO DISP.        1.357E-02   AT NODE        689   DOF  3
   INSTANCE: silicon final v1-1                                                              
          DISP.    CORRECTION TOO LARGE COMPARED TO DISP.    INCREMENT

 COMPATIBILITY ERRORS:
    TYPE                NUMBER EXCEEDING TOLERANCE  MAXIMUM ERROR        IN ELEMENT
 VOLUMETRIC                          0               -2.616E-08              30777
   INSTANCE: silicon final v1-1                                                              
 
	SYMMETRIC DIRECT SPARSE SOLVER RUNNING ON
 	1 HOST:        1 MPI RANK  x 8 THREADS
 	NUMBER OF EQUATIONS:     186250
 	NUMBER OF RHS:           1
 	NUMBER OF FLOPS:         1.054e+11

     CHECK POINT   START OF SOLVER    

     CHECK POINT  END OF SOLVER       

       ELAPSED USER TIME (SEC)      =   6.3000    
       ELAPSED SYSTEM TIME (SEC)    =  0.10000    
       ELAPSED TOTAL CPU TIME (SEC) =   6.4000    
       ELAPSED WALLCLOCK TIME (SEC) =          2
 

 ***WARNING: THE SYSTEM MATRIX HAS 1 NEGATIVE EIGENVALUES.
             EXPLANATIONS ARE SUGGESTED AFTER THE FIRST OCCURRENCE OF THIS MESSAGE.

               CONVERGENCE CHECKS FOR EQUILIBRIUM ITERATION     2


 AVERAGE FORCE                       173.       TIME AVG. FORCE        132.    
 LARGEST RESIDUAL FORCE             1.255E-05   AT NODE      51718   DOF  2
   INSTANCE: silicon final v1-1                                                              
 LARGEST INCREMENT OF DISP.         1.011E-02   AT NODE        689   DOF  3
   INSTANCE: silicon final v1-1                                                              
 LARGEST CORRECTION TO DISP.       -7.439E-03   AT NODE        689   DOF  3
   INSTANCE: silicon final v1-1                                                              
          DISP.    CORRECTION TOO LARGE COMPARED TO DISP.    INCREMENT

 COMPATIBILITY ERRORS:
    TYPE                NUMBER EXCEEDING TOLERANCE  MAXIMUM ERROR        IN ELEMENT
 VOLUMETRIC                          0               -7.857E-09              30777
   INSTANCE: silicon final v1-1                                                              
 
	SYMMETRIC DIRECT SPARSE SOLVER RUNNING ON
 	1 HOST:        1 MPI RANK  x 8 THREADS
 	NUMBER OF EQUATIONS:     186250
 	NUMBER OF RHS:           1
 	NUMBER OF FLOPS:         1.054e+11

     CHECK POINT   START OF SOLVER    

     CHECK POINT  END OF SOLVER       

       ELAPSED USER TIME (SEC)      =   5.8000    
       ELAPSED SYSTEM TIME (SEC)    =   0.0000    
       ELAPSED TOTAL CPU TIME (SEC) =   5.8000    
       ELAPSED WALLCLOCK TIME (SEC) =          1
 

 ***WARNING: THE SYSTEM MATRIX HAS 1 NEGATIVE EIGENVALUES.
             EXPLANATIONS ARE SUGGESTED AFTER THE FIRST OCCURRENCE OF THIS MESSAGE.

               CONVERGENCE CHECKS FOR EQUILIBRIUM ITERATION     3


 AVERAGE FORCE                       173.       TIME AVG. FORCE        132.    
 LARGEST RESIDUAL FORCE             6.079E-06   AT NODE      51718   DOF  2
   INSTANCE: silicon final v1-1                                                              
 LARGEST INCREMENT OF DISP.         4.935E-03   AT NODE        689   DOF  3
   INSTANCE: silicon final v1-1                                                              
 LARGEST CORRECTION TO DISP.       -5.178E-03   AT NODE        689   DOF  3
   INSTANCE: silicon final v1-1                                                              
          DISP.    CORRECTION TOO LARGE COMPARED TO DISP.    INCREMENT

 COMPATIBILITY ERRORS:
    TYPE                NUMBER EXCEEDING TOLERANCE  MAXIMUM ERROR        IN ELEMENT
 VOLUMETRIC                          0               -3.807E-09              30777
   INSTANCE: silicon final v1-1                                                              
 
	SYMMETRIC DIRECT SPARSE SOLVER RUNNING ON
 	1 HOST:        1 MPI RANK  x 8 THREADS
 	NUMBER OF EQUATIONS:     186250
 	NUMBER OF RHS:           1
 	NUMBER OF FLOPS:         1.054e+11

     CHECK POINT   START OF SOLVER    

     CHECK POINT  END OF SOLVER       

       ELAPSED USER TIME (SEC)      =   6.2000    
       ELAPSED SYSTEM TIME (SEC)    =   0.0000    
       ELAPSED TOTAL CPU TIME (SEC) =   6.2000    
       ELAPSED WALLCLOCK TIME (SEC) =          2

               CONVERGENCE CHECKS FOR EQUILIBRIUM ITERATION     4


 AVERAGE FORCE                       173.       TIME AVG. FORCE        132.    
 LARGEST RESIDUAL FORCE             2.583E-04   AT NODE      51718   DOF  2
   INSTANCE: silicon final v1-1                                                              
 LARGEST INCREMENT OF DISP.         3.868E-02   AT NODE        689   DOF  3
   INSTANCE: silicon final v1-1                                                              
 LARGEST CORRECTION TO DISP.        3.375E-02   AT NODE        689   DOF  3
   INSTANCE: silicon final v1-1                                                              
          DISP.    CORRECTION TOO LARGE COMPARED TO DISP.    INCREMENT

 COMPATIBILITY ERRORS:
    TYPE                NUMBER EXCEEDING TOLERANCE  MAXIMUM ERROR        IN ELEMENT
 VOLUMETRIC                          0               -1.617E-07              30777
   INSTANCE: silicon final v1-1                                                              
 

 ***NOTE: THE SOLUTION APPEARS TO BE DIVERGING. CONVERGENCE IS JUDGED UNLIKELY.


  INCREMENT    29 STARTS. ATTEMPT NUMBER  2, TIME INCREMENT  1.000E-08
 
	SYMMETRIC DIRECT SPARSE SOLVER RUNNING ON
 	1 HOST:        1 MPI RANK  x 8 THREADS
 	NUMBER OF EQUATIONS:     186250
 	NUMBER OF RHS:           1
 	NUMBER OF FLOPS:         1.054e+11

     CHECK POINT   START OF SOLVER    

     CHECK POINT  END OF SOLVER       

       ELAPSED USER TIME (SEC)      =   6.5000    
       ELAPSED SYSTEM TIME (SEC)    =  0.10000    
       ELAPSED TOTAL CPU TIME (SEC) =   6.6000    
       ELAPSED WALLCLOCK TIME (SEC) =          2

               CONVERGENCE CHECKS FOR EQUILIBRIUM ITERATION     1


 AVERAGE FORCE                       173.       TIME AVG. FORCE        132.    
 LARGEST RESIDUAL FORCE             4.010E-06   AT NODE      51718   DOF  2
   INSTANCE: silicon final v1-1                                                              
 LARGEST INCREMENT OF DISP.         6.857E-03   AT NODE        689   DOF  3
   INSTANCE: silicon final v1-1                                                              
 LARGEST CORRECTION TO DISP.        4.205E-03   AT NODE        689   DOF  3
   INSTANCE: silicon final v1-1                                                              
          DISP.    CORRECTION TOO LARGE COMPARED TO DISP.    INCREMENT

 COMPATIBILITY ERRORS:
    TYPE                NUMBER EXCEEDING TOLERANCE  MAXIMUM ERROR        IN ELEMENT
 VOLUMETRIC                          0               -2.511E-09              30777
   INSTANCE: silicon final v1-1                                                              
 
	SYMMETRIC DIRECT SPARSE SOLVER RUNNING ON
 	1 HOST:        1 MPI RANK  x 8 THREADS
 	NUMBER OF EQUATIONS:     186250
 	NUMBER OF RHS:           1
 	NUMBER OF FLOPS:         1.054e+11

     CHECK POINT   START OF SOLVER    

     CHECK POINT  END OF SOLVER       

       ELAPSED USER TIME (SEC)      =   6.1000    
       ELAPSED SYSTEM TIME (SEC)    =   0.0000    
       ELAPSED TOTAL CPU TIME (SEC) =   6.1000    
       ELAPSED WALLCLOCK TIME (SEC) =          2
 

 ***WARNING: THE SYSTEM MATRIX HAS 1 NEGATIVE EIGENVALUES.
             EXPLANATIONS ARE SUGGESTED AFTER THE FIRST OCCURRENCE OF THIS MESSAGE.

               CONVERGENCE CHECKS FOR EQUILIBRIUM ITERATION     2


 AVERAGE FORCE                       173.       TIME AVG. FORCE        132.    
 LARGEST RESIDUAL FORCE             2.709E-06   AT NODE      51718   DOF  2
   INSTANCE: silicon final v1-1                                                              
 LARGEST INCREMENT OF DISP.         3.401E-03   AT NODE        689   DOF  3
   INSTANCE: silicon final v1-1                                                              
 LARGEST CORRECTION TO DISP.       -3.456E-03   AT NODE        689   DOF  3
   INSTANCE: silicon final v1-1                                                              
          DISP.    CORRECTION TOO LARGE COMPARED TO DISP.    INCREMENT

 COMPATIBILITY ERRORS:
    TYPE                NUMBER EXCEEDING TOLERANCE  MAXIMUM ERROR        IN ELEMENT
 VOLUMETRIC                          0               -1.696E-09              30777
   INSTANCE: silicon final v1-1                                                              
 
	SYMMETRIC DIRECT SPARSE SOLVER RUNNING ON
 	1 HOST:        1 MPI RANK  x 8 THREADS
 	NUMBER OF EQUATIONS:     186250
 	NUMBER OF RHS:           1
 	NUMBER OF FLOPS:         1.054e+11

     CHECK POINT   START OF SOLVER    

     CHECK POINT  END OF SOLVER       

       ELAPSED USER TIME (SEC)      =   6.0000    
       ELAPSED SYSTEM TIME (SEC)    =   0.0000    
       ELAPSED TOTAL CPU TIME (SEC) =   6.0000    
       ELAPSED WALLCLOCK TIME (SEC) =          1

               CONVERGENCE CHECKS FOR EQUILIBRIUM ITERATION     3


 AVERAGE FORCE                       173.       TIME AVG. FORCE        132.    
 LARGEST RESIDUAL FORCE             3.560E-06   AT NODE      51718   DOF  2
   INSTANCE: silicon final v1-1                                                              
 LARGEST INCREMENT OF DISP.         7.363E-03   AT NODE        689   DOF  3
   INSTANCE: silicon final v1-1                                                              
 LARGEST CORRECTION TO DISP.        3.963E-03   AT NODE        689   DOF  3
   INSTANCE: silicon final v1-1                                                              
          DISP.    CORRECTION TOO LARGE COMPARED TO DISP.    INCREMENT

 COMPATIBILITY ERRORS:
    TYPE                NUMBER EXCEEDING TOLERANCE  MAXIMUM ERROR        IN ELEMENT
 VOLUMETRIC                          0               -2.230E-09              30777
   INSTANCE: silicon final v1-1                                                              
 
	SYMMETRIC DIRECT SPARSE SOLVER RUNNING ON
 	1 HOST:        1 MPI RANK  x 8 THREADS
 	NUMBER OF EQUATIONS:     186250
 	NUMBER OF RHS:           1
 	NUMBER OF FLOPS:         1.054e+11

     CHECK POINT   START OF SOLVER    

     CHECK POINT  END OF SOLVER       

       ELAPSED USER TIME (SEC)      =   5.6000    
       ELAPSED SYSTEM TIME (SEC)    =   0.0000    
       ELAPSED TOTAL CPU TIME (SEC) =   5.6000    
       ELAPSED WALLCLOCK TIME (SEC) =          2
 

 ***WARNING: THE SYSTEM MATRIX HAS 1 NEGATIVE EIGENVALUES.
             EXPLANATIONS ARE SUGGESTED AFTER THE FIRST OCCURRENCE OF THIS MESSAGE.

               CONVERGENCE CHECKS FOR EQUILIBRIUM ITERATION     4


 AVERAGE FORCE                       173.       TIME AVG. FORCE        132.    
 LARGEST RESIDUAL FORCE             2.640E-06   AT NODE      51718   DOF  2
   INSTANCE: silicon final v1-1                                                              
 LARGEST INCREMENT OF DISP.         3.951E-03   AT NODE        689   DOF  3
   INSTANCE: silicon final v1-1                                                              
 LARGEST CORRECTION TO DISP.       -3.412E-03   AT NODE        689   DOF  3
   INSTANCE: silicon final v1-1                                                              
          DISP.    CORRECTION TOO LARGE COMPARED TO DISP.    INCREMENT

 COMPATIBILITY ERRORS:
    TYPE                NUMBER EXCEEDING TOLERANCE  MAXIMUM ERROR        IN ELEMENT
 VOLUMETRIC                          0               -1.653E-09              30777
   INSTANCE: silicon final v1-1                                                              
 
	SYMMETRIC DIRECT SPARSE SOLVER RUNNING ON
 	1 HOST:        1 MPI RANK  x 8 THREADS
 	NUMBER OF EQUATIONS:     186250
 	NUMBER OF RHS:           1
 	NUMBER OF FLOPS:         1.054e+11

     CHECK POINT   START OF SOLVER    

     CHECK POINT  END OF SOLVER       

       ELAPSED USER TIME (SEC)      =   5.7000    
       ELAPSED SYSTEM TIME (SEC)    =  0.10000    
       ELAPSED TOTAL CPU TIME (SEC) =   5.8000    
       ELAPSED WALLCLOCK TIME (SEC) =          1

               CONVERGENCE CHECKS FOR EQUILIBRIUM ITERATION     5


 AVERAGE FORCE                       173.       TIME AVG. FORCE        132.    
 LARGEST RESIDUAL FORCE             9.362E-06   AT NODE      51718   DOF  2
   INSTANCE: silicon final v1-1                                                              
 LARGEST INCREMENT OF DISP.         1.038E-02   AT NODE        689   DOF  3
   INSTANCE: silicon final v1-1                                                              
 LARGEST CORRECTION TO DISP.        6.426E-03   AT NODE        689   DOF  3
   INSTANCE: silicon final v1-1                                                              
          DISP.    CORRECTION TOO LARGE COMPARED TO DISP.    INCREMENT

 COMPATIBILITY ERRORS:
    TYPE                NUMBER EXCEEDING TOLERANCE  MAXIMUM ERROR        IN ELEMENT
 VOLUMETRIC                          0               -5.863E-09              30777
   INSTANCE: silicon final v1-1                                                              
 

 ***NOTE: THE SOLUTION APPEARS TO BE DIVERGING. CONVERGENCE IS JUDGED UNLIKELY.
 

 ***ERROR: TIME INCREMENT REQUIRED IS LESS THAN THE MINIMUM SPECIFIED

 ***ERROR: THE ANALYSIS HAS BEEN TERMINATED DUE TO PREVIOUS ERRORS. ALL OUTPUT 
           REQUESTS HAVE BEEN WRITTEN FOR THE LAST CONVERGED INCREMENT.



     ANALYSIS SUMMARY:
     TOTAL OF         29  INCREMENTS
                      24  CUTBACKS IN AUTOMATIC INCREMENTATION
                     182  ITERATIONS INCLUDING CONTACT ITERATIONS IF PRESENT
                     182  PASSES THROUGH THE EQUATION SOLVER OF WHICH 
                     182  INVOLVE MATRIX DECOMPOSITION, INCLUDING
                       0  DECOMPOSITION(S) OF THE MASS MATRIX
                       1  REORDERING OF EQUATIONS TO MINIMIZE WAVEFRONT
                       0  ADDITIONAL RESIDUAL EVALUATIONS FOR LINE SEARCHES
                       0  ADDITIONAL OPERATOR EVALUATIONS FOR LINE SEARCHES
                       1  WARNING MESSAGES DURING USER INPUT PROCESSING
                      68  WARNING MESSAGES DURING ANALYSIS
                       0  ANALYSIS WARNINGS ARE NUMERICAL PROBLEM MESSAGES
                      61  ANALYSIS WARNINGS ARE NEGATIVE EIGENVALUE MESSAGES
                       2  ERROR MESSAGES



     JOB TIME SUMMARY
       USER TIME (SEC)      =   1242.9    
       SYSTEM TIME (SEC)    =   11.100    
       TOTAL CPU TIME (SEC) =   1254.0    
       WALLCLOCK TIME (SEC) =        471
