1

   Abaqus 2022                                  Date 11-Nov-2022   Time 11:26:13
   For use by Supplied by Team-SolidSQUAD under license from Dassault Systemes or its subsidiary.

                                                                                 
                                                                                 
 STEP    1     INCREMENT     1     STEP TIME    0.00    


                        S T E P       1     S T A T I C   A N A L Y S I S


                                                                                          

     AUTOMATIC TIME CONTROL WITH -
          A SUGGESTED INITIAL TIME INCREMENT OF                 1.00    
          AND A TOTAL TIME PERIOD OF                            1.00    
          THE MINIMUM TIME INCREMENT ALLOWED IS                1.000E-08
          THE MAXIMUM TIME INCREMENT ALLOWED IS                 1.00    

     LINEAR EQUATION SOLVER TYPE         DIRECT SPARSE

 CONVERGENCE TOLERANCE PARAMETERS FOR FORCE    
     CRITERION FOR RESIDUAL FORCE     FOR A NONLINEAR PROBLEM          5.000E-03
     CRITERION FOR DISP.    CORRECTION IN A NONLINEAR PROBLEM          1.000E-02
     INITIAL VALUE OF TIME AVERAGE FORCE                               1.000E-02
     AVERAGE FORCE     IS TIME AVERAGE FORCE    
     ALTERNATE CRIT. FOR RESIDUAL FORCE     FOR A NONLINEAR PROBLEM    2.000E-02
     CRITERION FOR ZERO FORCE     RELATIVE TO TIME AVRG. FORCE         1.000E-05
     CRITERION FOR RESIDUAL FORCE     WHEN THERE IS ZERO FLUX          1.000E-05
     CRITERION FOR DISP.    CORRECTION WHEN THERE IS ZERO FLUX         1.000E-03
     CRITERION FOR RESIDUAL FORCE     FOR A LINEAR INCREMENT           1.000E-08
     FIELD CONVERSION RATIO                                             1.00    
     CRITERION FOR ZERO FORCE     REL. TO TIME AVRG. MAX. FORCE        1.000E-05
     CRITERION FOR ZERO DISP.    RELATIVE TO CHARACTERISTIC LENGTH     1.000E-08

     VOLUMETRIC STRAIN COMPATIBILITY TOLERANCE FOR HYBRID SOLIDS       1.000E-05
     AXIAL STRAIN COMPATIBILITY TOLERANCE FOR HYBRID BEAMS             1.000E-05
     TRANS. SHEAR STRAIN COMPATIBILITY TOLERANCE FOR HYBRID BEAMS      1.000E-05
     SOFT CONTACT CONSTRAINT COMPATIBILITY TOLERANCE FOR P>P0          5.000E-03
     SOFT CONTACT CONSTRAINT COMPATIBILITY TOLERANCE FOR P=0.0         0.100    
     CONTACT FORCE ERROR TOLERANCE FOR CONVERT SDI=YES                 1.00    
     DISPLACEMENT COMPATIBILITY TOLERANCE FOR DCOUP ELEMENTS           1.000E-05
     ROTATION COMPATIBILITY TOLERANCE FOR DCOUP ELEMENTS               1.000E-05

 EQUILIBRIUM WILL BE CHECKED FOR SEVERE DISCONTINUITY ITERATIONS

 TIME INCREMENTATION CONTROL PARAMETERS:
     FIRST EQUILIBRIUM ITERATION FOR CONSECUTIVE DIVERGENCE CHECK              4
     EQUILIBRIUM ITERATION AT WHICH LOG. CONVERGENCE RATE CHECK BEGINS         8
     EQUILIBRIUM ITERATION AFTER WHICH ALTERNATE RESIDUAL IS USED              9
     MAXIMUM EQUILIBRIUM ITERATIONS ALLOWED                                   16
     EQUILIBRIUM ITERATION COUNT FOR CUT-BACK IN NEXT INCREMENT               10
     MAXIMUM EQUILIB. ITERS IN TWO INCREMENTS FOR TIME INCREMENT INCREASE      4
     MAXIMUM ITERATIONS FOR SEVERE DISCONTINUITIES                            50
     MAXIMUM ATTEMPTS ALLOWED IN AN INCREMENT                                  5
     MAXIMUM DISCON. ITERS IN TWO INCREMENTS FOR TIME INCREMENT INCREASE      50
     MAXIMUM CONTACT AUGMENTATIONS FOR *SURFACE BEHAVIOR,AUGMENTED LAGRANGE   50
     CUT-BACK FACTOR AFTER DIVERGENCE                                 0.2500    
     CUT-BACK FACTOR FOR TOO SLOW CONVERGENCE                         0.5000    
     CUT-BACK FACTOR AFTER TOO MANY EQUILIBRIUM ITERATIONS            0.7500    
     CUT-BACK FACTOR AFTER TOO MANY SEVERE DISCONTINUITY ITERATIONS   0.2500    
     CUT-BACK FACTOR AFTER PROBLEMS IN ELEMENT ASSEMBLY               0.2500    
     INCREASE FACTOR AFTER TWO INCREMENTS THAT CONVERGE QUICKLY        1.500    
     MAX. TIME INCREMENT INCREASE FACTOR ALLOWED                       1.500    
     MAX. TIME INCREMENT INCREASE FACTOR ALLOWED (DYNAMICS)            1.250    
     MAX. TIME INCREMENT INCREASE FACTOR ALLOWED (DIFFUSION)           2.000    
     MINIMUM TIME INCREMENT RATIO FOR EXTRAPOLATION TO OCCUR          0.1000    
     MAX. RATIO OF TIME INCREMENT TO STABILITY LIMIT                   1.000    
     FRACTION OF STABILITY LIMIT FOR NEW TIME INCREMENT               0.9500    
     TIME INCREMENT INCREASE FACTOR BEFORE A TIME POINT                1.000    
     GLOBAL STABILIZATION CONTROL IS NOT USED

          PRINT OF INCREMENT NUMBER, TIME, ETC., EVERY    1  INCREMENTS

     THE MAXIMUM NUMBER OF INCREMENTS IN THIS STEP IS                 1000000

          LARGE DISPLACEMENT THEORY WILL BE USED

     LINEAR EXTRAPOLATION WILL BE USED

     CHARACTERISTIC ELEMENT LENGTH      175.    

     DETAILS REGARDING ACTUAL SOLUTION WAVEFRONT REQUESTED

     DETAILED OUTPUT OF DIAGNOSTICS TO DATABASE REQUESTED

     PRINT OF INCREMENT NUMBER, TIME, ETC., TO THE MESSAGE FILE EVERY     1  INCREMENTS

     ELEMENT OPERATIONS WILL BE CARRIED OUT IN PARALLEL USING   8 THREADS ON 1 DOMAIN

     PARALLEL CONTACT TRACKING ENABLED


     COLLECTING MODEL CONSTRAINT INFORMATION FOR OVERCONSTRAINT CHECKS

     COLLECTING STEP CONSTRAINT INFORMATION FOR OVERCONSTRAINT CHECKS


  INCREMENT     1 STARTS. ATTEMPT NUMBER  1, TIME INCREMENT   1.00    
 
     INITIAL ELEMENT LOAD BALANCE
            DOMAIN    1     THREAD    NUMBER OF ELEMENTS
                              1            3664
                              2            4008
                              3            3936
                              4            3800
                              5            3696
                              6            4032
                              7            3988
                              8            3888
 
	SYMMETRIC DIRECT SPARSE SOLVER RUNNING ON
 	1 HOST:        1 MPI RANK  x 8 THREADS
 	NUMBER OF EQUATIONS:     186250
 	NUMBER OF RHS:           1
 	NUMBER OF FLOPS:         1.051e+11

     CHECK POINT   START OF SOLVER    

     CHECK POINT  END OF SOLVER       

       ELAPSED USER TIME (SEC)      =   4.1000    
       ELAPSED SYSTEM TIME (SEC)    =   0.0000    
       ELAPSED TOTAL CPU TIME (SEC) =   4.1000    
       ELAPSED WALLCLOCK TIME (SEC) =          1
 

 ***WARNING: THE SYSTEM MATRIX HAS 4 NEGATIVE EIGENVALUES.

     NEGATIVE EIGENVALUES MEAN THAT THE SYSTEM MATRIX IS NOT 
     POSITIVE DEFINITE:
     FOR EXAMPLE, A BIFURCATION (BUCKLING) LOAD MAY HAVE BEEN EXCEEDED.
   ELEMENT SILICON FINAL V1-1.6586 IS DISTORTING EXCESSIVELY.
   ELEMENT SILICON FINAL V1-1.7558 IS DISTORTING EXCESSIVELY.
   ELEMENT SILICON FINAL V1-1.7558 IS DISTORTING EXCESSIVELY.
   ELEMENT SILICON FINAL V1-1.7558 IS DISTORTING EXCESSIVELY.
   ELEMENT SILICON FINAL V1-1.8960 IS DISTORTING EXCESSIVELY.
   ELEMENT SILICON FINAL V1-1.19254 IS DISTORTING EXCESSIVELY.
   ELEMENT SILICON FINAL V1-1.19254 IS DISTORTING EXCESSIVELY.
   ELEMENT SILICON FINAL V1-1.19255 IS DISTORTING EXCESSIVELY.
   ELEMENT SILICON FINAL V1-1.19255 IS DISTORTING EXCESSIVELY.
   ELEMENT SILICON FINAL V1-1.5068 IS DISTORTING EXCESSIVELY.
   ELEMENT SILICON FINAL V1-1.5068 IS DISTORTING EXCESSIVELY.
   ELEMENT SILICON FINAL V1-1.6452 IS DISTORTING EXCESSIVELY.
   ELEMENT SILICON FINAL V1-1.6452 IS DISTORTING EXCESSIVELY.
   ELEMENT SILICON FINAL V1-1.6452 IS DISTORTING EXCESSIVELY.
   ELEMENT SILICON FINAL V1-1.7531 IS DISTORTING EXCESSIVELY.
   ELEMENT SILICON FINAL V1-1.7531 IS DISTORTING EXCESSIVELY.
   ELEMENT SILICON FINAL V1-1.7531 IS DISTORTING EXCESSIVELY.
   ELEMENT SILICON FINAL V1-1.7534 IS DISTORTING EXCESSIVELY.
   ELEMENT SILICON FINAL V1-1.7534 IS DISTORTING EXCESSIVELY.
   ELEMENT SILICON FINAL V1-1.7534 IS DISTORTING EXCESSIVELY.
   ELEMENT SILICON FINAL V1-1.8939 IS DISTORTING EXCESSIVELY.
   ELEMENT SILICON FINAL V1-1.9252 IS DISTORTING EXCESSIVELY.
   ELEMENT SILICON FINAL V1-1.9252 IS DISTORTING EXCESSIVELY.
   ELEMENT SILICON FINAL V1-1.9460 IS DISTORTING EXCESSIVELY.
   ELEMENT SILICON FINAL V1-1.9460 IS DISTORTING EXCESSIVELY.
   ELEMENT SILICON FINAL V1-1.9503 IS DISTORTING EXCESSIVELY.
   ELEMENT SILICON FINAL V1-1.12441 IS DISTORTING EXCESSIVELY.
   ELEMENT SILICON FINAL V1-1.12444 IS DISTORTING EXCESSIVELY.
   ELEMENT SILICON FINAL V1-1.18839 IS DISTORTING EXCESSIVELY.
   ELEMENT SILICON FINAL V1-1.19315 IS DISTORTING EXCESSIVELY.
   ELEMENT SILICON FINAL V1-1.19315 IS DISTORTING EXCESSIVELY.
   ELEMENT SILICON FINAL V1-1.19316 IS DISTORTING EXCESSIVELY.
   ELEMENT SILICON FINAL V1-1.24786 IS DISTORTING EXCESSIVELY.
   ELEMENT SILICON FINAL V1-1.27789 IS DISTORTING EXCESSIVELY.
   ELEMENT SILICON FINAL V1-1.27789 IS DISTORTING EXCESSIVELY.
   ELEMENT SILICON FINAL V1-1.7212 IS DISTORTING EXCESSIVELY.
   ELEMENT SILICON FINAL V1-1.7552 IS DISTORTING EXCESSIVELY.
   ELEMENT SILICON FINAL V1-1.8006 IS DISTORTING EXCESSIVELY.
   ELEMENT SILICON FINAL V1-1.18832 IS DISTORTING EXCESSIVELY.
   ELEMENT SILICON FINAL V1-1.25415 IS DISTORTING EXCESSIVELY.
   ELEMENT SILICON FINAL V1-1.27088 IS DISTORTING EXCESSIVELY.
   ELEMENT SILICON FINAL V1-1.7236 IS DISTORTING EXCESSIVELY.
   ELEMENT SILICON FINAL V1-1.7538 IS DISTORTING EXCESSIVELY.
   ELEMENT SILICON FINAL V1-1.7538 IS DISTORTING EXCESSIVELY.
   ELEMENT SILICON FINAL V1-1.7538 IS DISTORTING EXCESSIVELY.
   ELEMENT SILICON FINAL V1-1.7605 IS DISTORTING EXCESSIVELY.
   ELEMENT SILICON FINAL V1-1.7605 IS DISTORTING EXCESSIVELY.
   ELEMENT SILICON FINAL V1-1.7605 IS DISTORTING EXCESSIVELY.
   ELEMENT SILICON FINAL V1-1.9093 IS DISTORTING EXCESSIVELY.
   ELEMENT SILICON FINAL V1-1.9093 IS DISTORTING EXCESSIVELY.
   ELEMENT SILICON FINAL V1-1.9314 IS DISTORTING EXCESSIVELY.
   ELEMENT SILICON FINAL V1-1.9314 IS DISTORTING EXCESSIVELY.
   ELEMENT SILICON FINAL V1-1.9481 IS DISTORTING EXCESSIVELY.
   ELEMENT SILICON FINAL V1-1.9484 IS DISTORTING EXCESSIVELY.
   ELEMENT SILICON FINAL V1-1.15629 IS DISTORTING EXCESSIVELY.
   ELEMENT SILICON FINAL V1-1.15629 IS DISTORTING EXCESSIVELY.
   ELEMENT SILICON FINAL V1-1.15629 IS DISTORTING EXCESSIVELY.
   ELEMENT SILICON FINAL V1-1.18607 IS DISTORTING EXCESSIVELY.
   ELEMENT SILICON FINAL V1-1.18607 IS DISTORTING EXCESSIVELY.
   ELEMENT SILICON FINAL V1-1.18778 IS DISTORTING EXCESSIVELY.
   ELEMENT SILICON FINAL V1-1.21482 IS DISTORTING EXCESSIVELY.
   ELEMENT SILICON FINAL V1-1.9526 IS DISTORTING EXCESSIVELY.
   ELEMENT SILICON FINAL V1-1.9526 IS DISTORTING EXCESSIVELY.
   ELEMENT SILICON FINAL V1-1.18619 IS DISTORTING EXCESSIVELY.
   ELEMENT SILICON FINAL V1-1.19154 IS DISTORTING EXCESSIVELY.
   ELEMENT SILICON FINAL V1-1.19154 IS DISTORTING EXCESSIVELY.
   ELEMENT SILICON FINAL V1-1.19154 IS DISTORTING EXCESSIVELY.
   ELEMENT SILICON FINAL V1-1.19295 IS DISTORTING EXCESSIVELY.
   ELEMENT SILICON FINAL V1-1.25233 IS DISTORTING EXCESSIVELY.
   ELEMENT SILICON FINAL V1-1.9063 IS DISTORTING EXCESSIVELY.
   ELEMENT SILICON FINAL V1-1.9292 IS DISTORTING EXCESSIVELY.
   ELEMENT SILICON FINAL V1-1.19258 IS DISTORTING EXCESSIVELY.
   ELEMENT SILICON FINAL V1-1.19258 IS DISTORTING EXCESSIVELY.
   ELEMENT SILICON FINAL V1-1.19309 IS DISTORTING EXCESSIVELY.
   ELEMENT SILICON FINAL V1-1.19309 IS DISTORTING EXCESSIVELY.
   ELEMENT SILICON FINAL V1-1.19311 IS DISTORTING EXCESSIVELY.
   ELEMENT SILICON FINAL V1-1.19311 IS DISTORTING EXCESSIVELY.
   ELEMENT SILICON FINAL V1-1.19311 IS DISTORTING EXCESSIVELY.
   ELEMENT SILICON FINAL V1-1.19311 IS DISTORTING EXCESSIVELY.
   ELEMENT SILICON FINAL V1-1.19312 IS DISTORTING EXCESSIVELY.
   ELEMENT SILICON FINAL V1-1.19312 IS DISTORTING EXCESSIVELY.
   ELEMENT SILICON FINAL V1-1.19312 IS DISTORTING EXCESSIVELY.
   ELEMENT SILICON FINAL V1-1.27681 IS DISTORTING EXCESSIVELY.
   ELEMENT SILICON FINAL V1-1.22886 IS DISTORTING EXCESSIVELY.
   ELEMENT SILICON FINAL V1-1.22886 IS DISTORTING EXCESSIVELY.
   ELEMENT SILICON FINAL V1-1.22886 IS DISTORTING EXCESSIVELY.
   ELEMENT SILICON FINAL V1-1.1630 IS DISTORTING EXCESSIVELY.
   ELEMENT SILICON FINAL V1-1.5181 IS DISTORTING EXCESSIVELY.
   ELEMENT SILICON FINAL V1-1.7563 IS DISTORTING EXCESSIVELY.
   ELEMENT SILICON FINAL V1-1.7613 IS DISTORTING EXCESSIVELY.
   ELEMENT SILICON FINAL V1-1.7613 IS DISTORTING EXCESSIVELY.
   ELEMENT SILICON FINAL V1-1.7613 IS DISTORTING EXCESSIVELY.
   ELEMENT SILICON FINAL V1-1.9286 IS DISTORTING EXCESSIVELY.
   ELEMENT SILICON FINAL V1-1.9471 IS DISTORTING EXCESSIVELY.
   ELEMENT SILICON FINAL V1-1.9471 IS DISTORTING EXCESSIVELY.
   ELEMENT SILICON FINAL V1-1.19384 IS DISTORTING EXCESSIVELY.
   ELEMENT SILICON FINAL V1-1.19784 IS DISTORTING EXCESSIVELY.
   ELEMENT SILICON FINAL V1-1.19784 IS DISTORTING EXCESSIVELY.
   ELEMENT SILICON FINAL V1-1.19784 IS DISTORTING EXCESSIVELY.
   ELEMENT SILICON FINAL V1-1.24306 IS DISTORTING EXCESSIVELY.
   ELEMENT SILICON FINAL V1-1.30351 IS DISTORTING EXCESSIVELY.

 ***WARNING: EXCESSIVE DISTORTION AT A TOTAL OF 101 INTEGRATION POINTS IN SOLID 
             (CONTINUUM) ELEMENTS
 

 ***NOTE: ELEMENTS ARE DISTORTING EXCESSIVELY. CONVERGENCE IS JUDGED UNLIKELY.


  INCREMENT     1 STARTS. ATTEMPT NUMBER  2, TIME INCREMENT  0.250    
 
	SYMMETRIC DIRECT SPARSE SOLVER RUNNING ON
 	1 HOST:        1 MPI RANK  x 8 THREADS
 	NUMBER OF EQUATIONS:     186250
 	NUMBER OF RHS:           1
 	NUMBER OF FLOPS:         1.051e+11

     CHECK POINT   START OF SOLVER    

     CHECK POINT  END OF SOLVER       

       ELAPSED USER TIME (SEC)      =   4.3000    
       ELAPSED SYSTEM TIME (SEC)    =  0.10000    
       ELAPSED TOTAL CPU TIME (SEC) =   4.4000    
       ELAPSED WALLCLOCK TIME (SEC) =          1
 

 ***WARNING: THE SYSTEM MATRIX HAS 1 NEGATIVE EIGENVALUES.
             EXPLANATIONS ARE SUGGESTED AFTER THE FIRST OCCURRENCE OF THIS MESSAGE.

               CONVERGENCE CHECKS FOR EQUILIBRIUM ITERATION     1


 AVERAGE FORCE                       16.5       TIME AVG. FORCE        16.5    
 LARGEST RESIDUAL FORCE              137.       AT NODE      29823   DOF  1
   INSTANCE: silicon final v1-1                                                              
 LARGEST INCREMENT OF DISP.         -124.       AT NODE      30822   DOF  3
   INSTANCE: silicon final v1-1                                                              
 LARGEST CORRECTION TO DISP.        -124.       AT NODE      30822   DOF  3
   INSTANCE: silicon final v1-1                                                              
          FORCE     EQUILIBRIUM NOT ACHIEVED WITHIN TOLERANCE.

 COMPATIBILITY ERRORS:
    TYPE                NUMBER EXCEEDING TOLERANCE  MAXIMUM ERROR        IN ELEMENT
 VOLUMETRIC                      27633               -1.198E-01               7605
   INSTANCE: silicon final v1-1                                                              
 
	SYMMETRIC DIRECT SPARSE SOLVER RUNNING ON
 	1 HOST:        1 MPI RANK  x 8 THREADS
 	NUMBER OF EQUATIONS:     186250
 	NUMBER OF RHS:           1
 	NUMBER OF FLOPS:         1.051e+11

     CHECK POINT   START OF SOLVER    

     CHECK POINT  END OF SOLVER       

       ELAPSED USER TIME (SEC)      =   5.0000    
       ELAPSED SYSTEM TIME (SEC)    =   0.0000    
       ELAPSED TOTAL CPU TIME (SEC) =   5.0000    
       ELAPSED WALLCLOCK TIME (SEC) =          2

               CONVERGENCE CHECKS FOR EQUILIBRIUM ITERATION     2


 AVERAGE FORCE                       5.46       TIME AVG. FORCE        5.46    
 LARGEST RESIDUAL FORCE              12.2       AT NODE      32643   DOF  3
   INSTANCE: silicon final v1-1                                                              
 LARGEST INCREMENT OF DISP.         -110.       AT NODE      30822   DOF  3
   INSTANCE: silicon final v1-1                                                              
 LARGEST CORRECTION TO DISP.         18.0       AT NODE      32540   DOF  3
   INSTANCE: silicon final v1-1                                                              
          FORCE     EQUILIBRIUM NOT ACHIEVED WITHIN TOLERANCE.

 COMPATIBILITY ERRORS:
    TYPE                NUMBER EXCEEDING TOLERANCE  MAXIMUM ERROR        IN ELEMENT
 VOLUMETRIC                       6044               -8.810E-03              19357
   INSTANCE: silicon final v1-1                                                              
 
	SYMMETRIC DIRECT SPARSE SOLVER RUNNING ON
 	1 HOST:        1 MPI RANK  x 8 THREADS
 	NUMBER OF EQUATIONS:     186250
 	NUMBER OF RHS:           1
 	NUMBER OF FLOPS:         1.051e+11

     CHECK POINT   START OF SOLVER    

     CHECK POINT  END OF SOLVER       

       ELAPSED USER TIME (SEC)      =   4.2000    
       ELAPSED SYSTEM TIME (SEC)    =   0.0000    
       ELAPSED TOTAL CPU TIME (SEC) =   4.2000    
       ELAPSED WALLCLOCK TIME (SEC) =          2

               CONVERGENCE CHECKS FOR EQUILIBRIUM ITERATION     3


 AVERAGE FORCE                       5.24       TIME AVG. FORCE        5.24    
 LARGEST RESIDUAL FORCE            -0.122       AT NODE      30863   DOF  3
   INSTANCE: silicon final v1-1                                                              
 LARGEST INCREMENT OF DISP.         -109.       AT NODE      30822   DOF  3
   INSTANCE: silicon final v1-1                                                              
 LARGEST CORRECTION TO DISP.         1.26       AT NODE      47809   DOF  3
   INSTANCE: silicon final v1-1                                                              
          FORCE     EQUILIBRIUM NOT ACHIEVED WITHIN TOLERANCE.

 COMPATIBILITY ERRORS:
    TYPE                NUMBER EXCEEDING TOLERANCE  MAXIMUM ERROR        IN ELEMENT
 VOLUMETRIC                        104               -4.659E-05              19301
   INSTANCE: silicon final v1-1                                                              
 
	SYMMETRIC DIRECT SPARSE SOLVER RUNNING ON
 	1 HOST:        1 MPI RANK  x 8 THREADS
 	NUMBER OF EQUATIONS:     186250
 	NUMBER OF RHS:           1
 	NUMBER OF FLOPS:         1.051e+11

     CHECK POINT   START OF SOLVER    

     CHECK POINT  END OF SOLVER       

       ELAPSED USER TIME (SEC)      =   4.7000    
       ELAPSED SYSTEM TIME (SEC)    =  0.10000    
       ELAPSED TOTAL CPU TIME (SEC) =   4.8000    
       ELAPSED WALLCLOCK TIME (SEC) =          2

               CONVERGENCE CHECKS FOR EQUILIBRIUM ITERATION     4


 AVERAGE FORCE                       5.24       TIME AVG. FORCE        5.24    
 LARGEST RESIDUAL FORCE             4.658E-06   AT NODE      30863   DOF  3
   INSTANCE: silicon final v1-1                                                              
 LARGEST INCREMENT OF DISP.         -109.       AT NODE      30822   DOF  3
   INSTANCE: silicon final v1-1                                                              
 LARGEST CORRECTION TO DISP.       -7.018E-03   AT NODE      29455   DOF  3
   INSTANCE: silicon final v1-1                                                              
          THE FORCE     EQUILIBRIUM EQUATIONS HAVE CONVERGED

 COMPATIBILITY ERRORS:
    TYPE                NUMBER EXCEEDING TOLERANCE  MAXIMUM ERROR        IN ELEMENT
 VOLUMETRIC                          0               -3.259E-09              19354
   INSTANCE: silicon final v1-1                                                              

 ITERATION SUMMARY FOR THE INCREMENT:   4 TOTAL ITERATIONS, OF WHICH
   0 ARE SEVERE DISCONTINUITY ITERATIONS AND  4 ARE EQUILIBRIUM ITERATIONS.

 TIME INCREMENT COMPLETED  0.250    ,  FRACTION OF STEP COMPLETED  0.250    
 STEP TIME COMPLETED       0.250    ,  TOTAL TIME COMPLETED        0.250    


  INCREMENT     2 STARTS. ATTEMPT NUMBER  1, TIME INCREMENT  0.250    
 
	SYMMETRIC DIRECT SPARSE SOLVER RUNNING ON
 	1 HOST:        1 MPI RANK  x 8 THREADS
 	NUMBER OF EQUATIONS:     186250
 	NUMBER OF RHS:           1
 	NUMBER OF FLOPS:         1.051e+11

     CHECK POINT   START OF SOLVER    

     CHECK POINT  END OF SOLVER       

       ELAPSED USER TIME (SEC)      =   4.5000    
       ELAPSED SYSTEM TIME (SEC)    =   0.0000    
       ELAPSED TOTAL CPU TIME (SEC) =   4.5000    
       ELAPSED WALLCLOCK TIME (SEC) =          1
 

 ***WARNING: THE SYSTEM MATRIX HAS 1 NEGATIVE EIGENVALUES.
             EXPLANATIONS ARE SUGGESTED AFTER THE FIRST OCCURRENCE OF THIS MESSAGE.

               CONVERGENCE CHECKS FOR EQUILIBRIUM ITERATION     1


 AVERAGE FORCE                       24.5       TIME AVG. FORCE        14.9    
 LARGEST RESIDUAL FORCE              118.       AT NODE      30821   DOF  3
   INSTANCE: silicon final v1-1                                                              
 LARGEST INCREMENT OF DISP.         -171.       AT NODE        439   DOF  3
   INSTANCE: silicon final v1-1                                                              
 LARGEST CORRECTION TO DISP.        -126.       AT NODE        439   DOF  3
   INSTANCE: silicon final v1-1                                                              
          FORCE     EQUILIBRIUM NOT ACHIEVED WITHIN TOLERANCE.

 COMPATIBILITY ERRORS:
    TYPE                NUMBER EXCEEDING TOLERANCE  MAXIMUM ERROR        IN ELEMENT
 VOLUMETRIC                      27799               -4.018E-02              19294
   INSTANCE: silicon final v1-1                                                              
 
	SYMMETRIC DIRECT SPARSE SOLVER RUNNING ON
 	1 HOST:        1 MPI RANK  x 8 THREADS
 	NUMBER OF EQUATIONS:     186250
 	NUMBER OF RHS:           1
 	NUMBER OF FLOPS:         1.051e+11

     CHECK POINT   START OF SOLVER    

     CHECK POINT  END OF SOLVER       

       ELAPSED USER TIME (SEC)      =   4.3000    
       ELAPSED SYSTEM TIME (SEC)    =  0.10000    
       ELAPSED TOTAL CPU TIME (SEC) =   4.4000    
       ELAPSED WALLCLOCK TIME (SEC) =          1

               CONVERGENCE CHECKS FOR EQUILIBRIUM ITERATION     2


 AVERAGE FORCE                       15.4       TIME AVG. FORCE        10.3    
 LARGEST RESIDUAL FORCE             -7.29       AT NODE      30821   DOF  3
   INSTANCE: silicon final v1-1                                                              
 LARGEST INCREMENT OF DISP.         -177.       AT NODE        439   DOF  3
   INSTANCE: silicon final v1-1                                                              
 LARGEST CORRECTION TO DISP.         13.5       AT NODE      47898   DOF  1
   INSTANCE: silicon final v1-1                                                              
          FORCE     EQUILIBRIUM NOT ACHIEVED WITHIN TOLERANCE.

 COMPATIBILITY ERRORS:
    TYPE                NUMBER EXCEEDING TOLERANCE  MAXIMUM ERROR        IN ELEMENT
 VOLUMETRIC                       7734               -1.052E-03               1925
   INSTANCE: silicon final v1-1                                                              
 
	SYMMETRIC DIRECT SPARSE SOLVER RUNNING ON
 	1 HOST:        1 MPI RANK  x 8 THREADS
 	NUMBER OF EQUATIONS:     186250
 	NUMBER OF RHS:           1
 	NUMBER OF FLOPS:         1.051e+11

     CHECK POINT   START OF SOLVER    

     CHECK POINT  END OF SOLVER       

       ELAPSED USER TIME (SEC)      =   4.2000    
       ELAPSED SYSTEM TIME (SEC)    =  0.10000    
       ELAPSED TOTAL CPU TIME (SEC) =   4.3000    
       ELAPSED WALLCLOCK TIME (SEC) =          1

               CONVERGENCE CHECKS FOR EQUILIBRIUM ITERATION     3


 AVERAGE FORCE                       15.4       TIME AVG. FORCE        10.3    
 LARGEST RESIDUAL FORCE            -6.503E-03   AT NODE      30821   DOF  3
   INSTANCE: silicon final v1-1                                                              
 LARGEST INCREMENT OF DISP.         -177.       AT NODE        439   DOF  3
   INSTANCE: silicon final v1-1                                                              
 LARGEST CORRECTION TO DISP.        -1.69       AT NODE      47898   DOF  1
   INSTANCE: silicon final v1-1                                                              
          THE FORCE     EQUILIBRIUM EQUATIONS HAVE CONVERGED

 COMPATIBILITY ERRORS:
    TYPE                NUMBER EXCEEDING TOLERANCE  MAXIMUM ERROR        IN ELEMENT
 VOLUMETRIC                          0               -2.332E-06               7586
   INSTANCE: silicon final v1-1                                                              
          TIME INCREMENT MAY NOW INCREASE TO    0.375    

 ITERATION SUMMARY FOR THE INCREMENT:   3 TOTAL ITERATIONS, OF WHICH
   0 ARE SEVERE DISCONTINUITY ITERATIONS AND  3 ARE EQUILIBRIUM ITERATIONS.

 TIME INCREMENT COMPLETED  0.250    ,  FRACTION OF STEP COMPLETED  0.500    
 STEP TIME COMPLETED       0.500    ,  TOTAL TIME COMPLETED        0.500    


  INCREMENT     3 STARTS. ATTEMPT NUMBER  1, TIME INCREMENT  0.375    
 
	SYMMETRIC DIRECT SPARSE SOLVER RUNNING ON
 	1 HOST:        1 MPI RANK  x 8 THREADS
 	NUMBER OF EQUATIONS:     186250
 	NUMBER OF RHS:           1
 	NUMBER OF FLOPS:         1.051e+11

     CHECK POINT   START OF SOLVER    

     CHECK POINT  END OF SOLVER       

       ELAPSED USER TIME (SEC)      =   4.5000    
       ELAPSED SYSTEM TIME (SEC)    =   0.0000    
       ELAPSED TOTAL CPU TIME (SEC) =   4.5000    
       ELAPSED WALLCLOCK TIME (SEC) =          1
 

 ***WARNING: THE SYSTEM MATRIX HAS 44 NEGATIVE EIGENVALUES.
             EXPLANATIONS ARE SUGGESTED AFTER THE FIRST OCCURRENCE OF THIS MESSAGE.
   ELEMENT SILICON FINAL V1-1.38 IS DISTORTING EXCESSIVELY.
   ELEMENT SILICON FINAL V1-1.38 IS DISTORTING EXCESSIVELY.
   ELEMENT SILICON FINAL V1-1.38 IS DISTORTING EXCESSIVELY.
   ELEMENT SILICON FINAL V1-1.38 IS DISTORTING EXCESSIVELY.
   ELEMENT SILICON FINAL V1-1.238 IS DISTORTING EXCESSIVELY.
   ELEMENT SILICON FINAL V1-1.238 IS DISTORTING EXCESSIVELY.
   ELEMENT SILICON FINAL V1-1.238 IS DISTORTING EXCESSIVELY.
   ELEMENT SILICON FINAL V1-1.238 IS DISTORTING EXCESSIVELY.
   ELEMENT SILICON FINAL V1-1.240 IS DISTORTING EXCESSIVELY.
   ELEMENT SILICON FINAL V1-1.240 IS DISTORTING EXCESSIVELY.
   ELEMENT SILICON FINAL V1-1.240 IS DISTORTING EXCESSIVELY.
   ELEMENT SILICON FINAL V1-1.240 IS DISTORTING EXCESSIVELY.
   ELEMENT SILICON FINAL V1-1.955 IS DISTORTING EXCESSIVELY.
   ELEMENT SILICON FINAL V1-1.955 IS DISTORTING EXCESSIVELY.
   ELEMENT SILICON FINAL V1-1.955 IS DISTORTING EXCESSIVELY.
   ELEMENT SILICON FINAL V1-1.959 IS DISTORTING EXCESSIVELY.
   ELEMENT SILICON FINAL V1-1.1340 IS DISTORTING EXCESSIVELY.
   ELEMENT SILICON FINAL V1-1.1343 IS DISTORTING EXCESSIVELY.
   ELEMENT SILICON FINAL V1-1.1343 IS DISTORTING EXCESSIVELY.
   ELEMENT SILICON FINAL V1-1.1343 IS DISTORTING EXCESSIVELY.
   ELEMENT SILICON FINAL V1-1.1709 IS DISTORTING EXCESSIVELY.
   ELEMENT SILICON FINAL V1-1.1709 IS DISTORTING EXCESSIVELY.
   ELEMENT SILICON FINAL V1-1.1709 IS DISTORTING EXCESSIVELY.
   ELEMENT SILICON FINAL V1-1.1710 IS DISTORTING EXCESSIVELY.
   ELEMENT SILICON FINAL V1-1.1710 IS DISTORTING EXCESSIVELY.
   ELEMENT SILICON FINAL V1-1.1711 IS DISTORTING EXCESSIVELY.
   ELEMENT SILICON FINAL V1-1.1711 IS DISTORTING EXCESSIVELY.
   ELEMENT SILICON FINAL V1-1.1711 IS DISTORTING EXCESSIVELY.
   ELEMENT SILICON FINAL V1-1.1712 IS DISTORTING EXCESSIVELY.
   ELEMENT SILICON FINAL V1-1.1712 IS DISTORTING EXCESSIVELY.
   ELEMENT SILICON FINAL V1-1.1712 IS DISTORTING EXCESSIVELY.
   ELEMENT SILICON FINAL V1-1.1712 IS DISTORTING EXCESSIVELY.
   ELEMENT SILICON FINAL V1-1.2649 IS DISTORTING EXCESSIVELY.
   ELEMENT SILICON FINAL V1-1.2650 IS DISTORTING EXCESSIVELY.
   ELEMENT SILICON FINAL V1-1.2650 IS DISTORTING EXCESSIVELY.
   ELEMENT SILICON FINAL V1-1.2650 IS DISTORTING EXCESSIVELY.
   ELEMENT SILICON FINAL V1-1.2650 IS DISTORTING EXCESSIVELY.
   ELEMENT SILICON FINAL V1-1.2652 IS DISTORTING EXCESSIVELY.
   ELEMENT SILICON FINAL V1-1.2652 IS DISTORTING EXCESSIVELY.
   ELEMENT SILICON FINAL V1-1.2652 IS DISTORTING EXCESSIVELY.
   ELEMENT SILICON FINAL V1-1.2652 IS DISTORTING EXCESSIVELY.
   ELEMENT SILICON FINAL V1-1.3474 IS DISTORTING EXCESSIVELY.
   ELEMENT SILICON FINAL V1-1.3474 IS DISTORTING EXCESSIVELY.
   ELEMENT SILICON FINAL V1-1.3474 IS DISTORTING EXCESSIVELY.
   ELEMENT SILICON FINAL V1-1.3474 IS DISTORTING EXCESSIVELY.
   ELEMENT SILICON FINAL V1-1.3475 IS DISTORTING EXCESSIVELY.
   ELEMENT SILICON FINAL V1-1.3475 IS DISTORTING EXCESSIVELY.
   ELEMENT SILICON FINAL V1-1.3475 IS DISTORTING EXCESSIVELY.
   ELEMENT SILICON FINAL V1-1.3476 IS DISTORTING EXCESSIVELY.
   ELEMENT SILICON FINAL V1-1.3476 IS DISTORTING EXCESSIVELY.
   ELEMENT SILICON FINAL V1-1.3476 IS DISTORTING EXCESSIVELY.
   ELEMENT SILICON FINAL V1-1.3476 IS DISTORTING EXCESSIVELY.
   ELEMENT SILICON FINAL V1-1.3477 IS DISTORTING EXCESSIVELY.
   ELEMENT SILICON FINAL V1-1.3478 IS DISTORTING EXCESSIVELY.
   ELEMENT SILICON FINAL V1-1.3478 IS DISTORTING EXCESSIVELY.
   ELEMENT SILICON FINAL V1-1.3478 IS DISTORTING EXCESSIVELY.
   ELEMENT SILICON FINAL V1-1.3478 IS DISTORTING EXCESSIVELY.
   ELEMENT SILICON FINAL V1-1.3479 IS DISTORTING EXCESSIVELY.
   ELEMENT SILICON FINAL V1-1.3479 IS DISTORTING EXCESSIVELY.
   ELEMENT SILICON FINAL V1-1.3479 IS DISTORTING EXCESSIVELY.
   ELEMENT SILICON FINAL V1-1.3479 IS DISTORTING EXCESSIVELY.
   ELEMENT SILICON FINAL V1-1.3480 IS DISTORTING EXCESSIVELY.
   ELEMENT SILICON FINAL V1-1.3480 IS DISTORTING EXCESSIVELY.
   ELEMENT SILICON FINAL V1-1.3480 IS DISTORTING EXCESSIVELY.
   ELEMENT SILICON FINAL V1-1.3480 IS DISTORTING EXCESSIVELY.
   ELEMENT SILICON FINAL V1-1.4929 IS DISTORTING EXCESSIVELY.
   ELEMENT SILICON FINAL V1-1.4929 IS DISTORTING EXCESSIVELY.
   ELEMENT SILICON FINAL V1-1.4929 IS DISTORTING EXCESSIVELY.
   ELEMENT SILICON FINAL V1-1.5129 IS DISTORTING EXCESSIVELY.
   ELEMENT SILICON FINAL V1-1.5129 IS DISTORTING EXCESSIVELY.
   ELEMENT SILICON FINAL V1-1.5130 IS DISTORTING EXCESSIVELY.
   ELEMENT SILICON FINAL V1-1.5439 IS DISTORTING EXCESSIVELY.
   ELEMENT SILICON FINAL V1-1.5527 IS DISTORTING EXCESSIVELY.
   ELEMENT SILICON FINAL V1-1.5527 IS DISTORTING EXCESSIVELY.
   ELEMENT SILICON FINAL V1-1.5528 IS DISTORTING EXCESSIVELY.
   ELEMENT SILICON FINAL V1-1.5528 IS DISTORTING EXCESSIVELY.
   ELEMENT SILICON FINAL V1-1.5528 IS DISTORTING EXCESSIVELY.
   ELEMENT SILICON FINAL V1-1.5736 IS DISTORTING EXCESSIVELY.
   ELEMENT SILICON FINAL V1-1.5736 IS DISTORTING EXCESSIVELY.
   ELEMENT SILICON FINAL V1-1.5736 IS DISTORTING EXCESSIVELY.
   ELEMENT SILICON FINAL V1-1.5736 IS DISTORTING EXCESSIVELY.
   ELEMENT SILICON FINAL V1-1.6081 IS DISTORTING EXCESSIVELY.
   ELEMENT SILICON FINAL V1-1.6081 IS DISTORTING EXCESSIVELY.
   ELEMENT SILICON FINAL V1-1.6081 IS DISTORTING EXCESSIVELY.
   ELEMENT SILICON FINAL V1-1.6081 IS DISTORTING EXCESSIVELY.
   ELEMENT SILICON FINAL V1-1.6082 IS DISTORTING EXCESSIVELY.
   ELEMENT SILICON FINAL V1-1.6082 IS DISTORTING EXCESSIVELY.
   ELEMENT SILICON FINAL V1-1.6082 IS DISTORTING EXCESSIVELY.
   ELEMENT SILICON FINAL V1-1.6082 IS DISTORTING EXCESSIVELY.
   ELEMENT SILICON FINAL V1-1.6083 IS DISTORTING EXCESSIVELY.
   ELEMENT SILICON FINAL V1-1.6083 IS DISTORTING EXCESSIVELY.
   ELEMENT SILICON FINAL V1-1.6083 IS DISTORTING EXCESSIVELY.
   ELEMENT SILICON FINAL V1-1.6083 IS DISTORTING EXCESSIVELY.
   ELEMENT SILICON FINAL V1-1.6084 IS DISTORTING EXCESSIVELY.
   ELEMENT SILICON FINAL V1-1.6084 IS DISTORTING EXCESSIVELY.
   ELEMENT SILICON FINAL V1-1.6084 IS DISTORTING EXCESSIVELY.
   ELEMENT SILICON FINAL V1-1.6086 IS DISTORTING EXCESSIVELY.
   ELEMENT SILICON FINAL V1-1.6086 IS DISTORTING EXCESSIVELY.
   ELEMENT SILICON FINAL V1-1.6088 IS DISTORTING EXCESSIVELY.
   ELEMENT SILICON FINAL V1-1.6088 IS DISTORTING EXCESSIVELY.
   ELEMENT SILICON FINAL V1-1.6088 IS DISTORTING EXCESSIVELY.
   ELEMENT SILICON FINAL V1-1.7498 IS DISTORTING EXCESSIVELY.
   ELEMENT SILICON FINAL V1-1.7499 IS DISTORTING EXCESSIVELY.
   ELEMENT SILICON FINAL V1-1.7499 IS DISTORTING EXCESSIVELY.
   ELEMENT SILICON FINAL V1-1.7499 IS DISTORTING EXCESSIVELY.
   ELEMENT SILICON FINAL V1-1.7500 IS DISTORTING EXCESSIVELY.
   ELEMENT SILICON FINAL V1-1.7811 IS DISTORTING EXCESSIVELY.
   ELEMENT SILICON FINAL V1-1.7948 IS DISTORTING EXCESSIVELY.
   ELEMENT SILICON FINAL V1-1.7949 IS DISTORTING EXCESSIVELY.
   ELEMENT SILICON FINAL V1-1.7949 IS DISTORTING EXCESSIVELY.
   ELEMENT SILICON FINAL V1-1.7949 IS DISTORTING EXCESSIVELY.
   ELEMENT SILICON FINAL V1-1.7949 IS DISTORTING EXCESSIVELY.
   ELEMENT SILICON FINAL V1-1.8117 IS DISTORTING EXCESSIVELY.
   ELEMENT SILICON FINAL V1-1.8117 IS DISTORTING EXCESSIVELY.
   ELEMENT SILICON FINAL V1-1.8119 IS DISTORTING EXCESSIVELY.
   ELEMENT SILICON FINAL V1-1.8119 IS DISTORTING EXCESSIVELY.
   ELEMENT SILICON FINAL V1-1.8377 IS DISTORTING EXCESSIVELY.
   ELEMENT SILICON FINAL V1-1.8377 IS DISTORTING EXCESSIVELY.
   ELEMENT SILICON FINAL V1-1.8377 IS DISTORTING EXCESSIVELY.
   ELEMENT SILICON FINAL V1-1.8377 IS DISTORTING EXCESSIVELY.
   ELEMENT SILICON FINAL V1-1.8379 IS DISTORTING EXCESSIVELY.
   ELEMENT SILICON FINAL V1-1.8593 IS DISTORTING EXCESSIVELY.
   ELEMENT SILICON FINAL V1-1.8594 IS DISTORTING EXCESSIVELY.
   ELEMENT SILICON FINAL V1-1.8594 IS DISTORTING EXCESSIVELY.
   ELEMENT SILICON FINAL V1-1.8600 IS DISTORTING EXCESSIVELY.
   ELEMENT SILICON FINAL V1-1.8600 IS DISTORTING EXCESSIVELY.
   ELEMENT SILICON FINAL V1-1.8600 IS DISTORTING EXCESSIVELY.
   ELEMENT SILICON FINAL V1-1.8827 IS DISTORTING EXCESSIVELY.
   ELEMENT SILICON FINAL V1-1.8827 IS DISTORTING EXCESSIVELY.
   ELEMENT SILICON FINAL V1-1.8827 IS DISTORTING EXCESSIVELY.
   ELEMENT SILICON FINAL V1-1.8827 IS DISTORTING EXCESSIVELY.
   ELEMENT SILICON FINAL V1-1.8828 IS DISTORTING EXCESSIVELY.
   ELEMENT SILICON FINAL V1-1.8828 IS DISTORTING EXCESSIVELY.
   ELEMENT SILICON FINAL V1-1.8828 IS DISTORTING EXCESSIVELY.
   ELEMENT SILICON FINAL V1-1.9102 IS DISTORTING EXCESSIVELY.
   ELEMENT SILICON FINAL V1-1.9102 IS DISTORTING EXCESSIVELY.
   ELEMENT SILICON FINAL V1-1.9102 IS DISTORTING EXCESSIVELY.
   ELEMENT SILICON FINAL V1-1.9102 IS DISTORTING EXCESSIVELY.
   ELEMENT SILICON FINAL V1-1.9276 IS DISTORTING EXCESSIVELY.
   ELEMENT SILICON FINAL V1-1.9276 IS DISTORTING EXCESSIVELY.
   ELEMENT SILICON FINAL V1-1.9349 IS DISTORTING EXCESSIVELY.
   ELEMENT SILICON FINAL V1-1.9349 IS DISTORTING EXCESSIVELY.
   ELEMENT SILICON FINAL V1-1.9350 IS DISTORTING EXCESSIVELY.
   ELEMENT SILICON FINAL V1-1.9514 IS DISTORTING EXCESSIVELY.
   ELEMENT SILICON FINAL V1-1.9514 IS DISTORTING EXCESSIVELY.
   ELEMENT SILICON FINAL V1-1.9514 IS DISTORTING EXCESSIVELY.
   ELEMENT SILICON FINAL V1-1.9514 IS DISTORTING EXCESSIVELY.
   ELEMENT SILICON FINAL V1-1.9518 IS DISTORTING EXCESSIVELY.
   ELEMENT SILICON FINAL V1-1.9519 IS DISTORTING EXCESSIVELY.
   ELEMENT SILICON FINAL V1-1.9519 IS DISTORTING EXCESSIVELY.
   ELEMENT SILICON FINAL V1-1.9519 IS DISTORTING EXCESSIVELY.
   ELEMENT SILICON FINAL V1-1.9519 IS DISTORTING EXCESSIVELY.
   ELEMENT SILICON FINAL V1-1.9520 IS DISTORTING EXCESSIVELY.
   ELEMENT SILICON FINAL V1-1.9520 IS DISTORTING EXCESSIVELY.
   ELEMENT SILICON FINAL V1-1.9520 IS DISTORTING EXCESSIVELY.
   ELEMENT SILICON FINAL V1-1.9520 IS DISTORTING EXCESSIVELY.
   ELEMENT SILICON FINAL V1-1.10179 IS DISTORTING EXCESSIVELY.
   ELEMENT SILICON FINAL V1-1.10179 IS DISTORTING EXCESSIVELY.
   ELEMENT SILICON FINAL V1-1.10179 IS DISTORTING EXCESSIVELY.
   ELEMENT SILICON FINAL V1-1.10394 IS DISTORTING EXCESSIVELY.
   ELEMENT SILICON FINAL V1-1.10541 IS DISTORTING EXCESSIVELY.
   ELEMENT SILICON FINAL V1-1.10542 IS DISTORTING EXCESSIVELY.
   ELEMENT SILICON FINAL V1-1.10543 IS DISTORTING EXCESSIVELY.
   ELEMENT SILICON FINAL V1-1.11283 IS DISTORTING EXCESSIVELY.
   ELEMENT SILICON FINAL V1-1.11283 IS DISTORTING EXCESSIVELY.
   ELEMENT SILICON FINAL V1-1.11286 IS DISTORTING EXCESSIVELY.
   ELEMENT SILICON FINAL V1-1.11286 IS DISTORTING EXCESSIVELY.
   ELEMENT SILICON FINAL V1-1.11287 IS DISTORTING EXCESSIVELY.
   ELEMENT SILICON FINAL V1-1.11287 IS DISTORTING EXCESSIVELY.
   ELEMENT SILICON FINAL V1-1.11287 IS DISTORTING EXCESSIVELY.
   ELEMENT SILICON FINAL V1-1.11287 IS DISTORTING EXCESSIVELY.
   ELEMENT SILICON FINAL V1-1.12730 IS DISTORTING EXCESSIVELY.
   ELEMENT SILICON FINAL V1-1.12838 IS DISTORTING EXCESSIVELY.
   ELEMENT SILICON FINAL V1-1.12838 IS DISTORTING EXCESSIVELY.
   ELEMENT SILICON FINAL V1-1.13067 IS DISTORTING EXCESSIVELY.
   ELEMENT SILICON FINAL V1-1.13067 IS DISTORTING EXCESSIVELY.
   ELEMENT SILICON FINAL V1-1.13284 IS DISTORTING EXCESSIVELY.
   ELEMENT SILICON FINAL V1-1.13284 IS DISTORTING EXCESSIVELY.
   ELEMENT SILICON FINAL V1-1.13284 IS DISTORTING EXCESSIVELY.
   ELEMENT SILICON FINAL V1-1.13553 IS DISTORTING EXCESSIVELY.
   ELEMENT SILICON FINAL V1-1.13553 IS DISTORTING EXCESSIVELY.
   ELEMENT SILICON FINAL V1-1.13553 IS DISTORTING EXCESSIVELY.
   ELEMENT SILICON FINAL V1-1.14242 IS DISTORTING EXCESSIVELY.
   ELEMENT SILICON FINAL V1-1.14242 IS DISTORTING EXCESSIVELY.
   ELEMENT SILICON FINAL V1-1.14242 IS DISTORTING EXCESSIVELY.
   ELEMENT SILICON FINAL V1-1.14246 IS DISTORTING EXCESSIVELY.
   ELEMENT SILICON FINAL V1-1.14246 IS DISTORTING EXCESSIVELY.
   ELEMENT SILICON FINAL V1-1.14246 IS DISTORTING EXCESSIVELY.
   ELEMENT SILICON FINAL V1-1.14898 IS DISTORTING EXCESSIVELY.
   ELEMENT SILICON FINAL V1-1.14898 IS DISTORTING EXCESSIVELY.
   ELEMENT SILICON FINAL V1-1.14898 IS DISTORTING EXCESSIVELY.
   ELEMENT SILICON FINAL V1-1.15615 IS DISTORTING EXCESSIVELY.
   ELEMENT SILICON FINAL V1-1.15615 IS DISTORTING EXCESSIVELY.
   ELEMENT SILICON FINAL V1-1.15615 IS DISTORTING EXCESSIVELY.
   ELEMENT SILICON FINAL V1-1.15615 IS DISTORTING EXCESSIVELY.
   ELEMENT SILICON FINAL V1-1.16201 IS DISTORTING EXCESSIVELY.
   ELEMENT SILICON FINAL V1-1.16201 IS DISTORTING EXCESSIVELY.
   ELEMENT SILICON FINAL V1-1.16201 IS DISTORTING EXCESSIVELY.
   ELEMENT SILICON FINAL V1-1.16201 IS DISTORTING EXCESSIVELY.
   ELEMENT SILICON FINAL V1-1.16203 IS DISTORTING EXCESSIVELY.
   ELEMENT SILICON FINAL V1-1.16203 IS DISTORTING EXCESSIVELY.
   ELEMENT SILICON FINAL V1-1.16203 IS DISTORTING EXCESSIVELY.
   ELEMENT SILICON FINAL V1-1.16203 IS DISTORTING EXCESSIVELY.
   ELEMENT SILICON FINAL V1-1.16641 IS DISTORTING EXCESSIVELY.
   ELEMENT SILICON FINAL V1-1.16641 IS DISTORTING EXCESSIVELY.
   ELEMENT SILICON FINAL V1-1.16644 IS DISTORTING EXCESSIVELY.
   ELEMENT SILICON FINAL V1-1.16644 IS DISTORTING EXCESSIVELY.
   ELEMENT SILICON FINAL V1-1.16646 IS DISTORTING EXCESSIVELY.
   ELEMENT SILICON FINAL V1-1.16646 IS DISTORTING EXCESSIVELY.
   ELEMENT SILICON FINAL V1-1.16646 IS DISTORTING EXCESSIVELY.
   ELEMENT SILICON FINAL V1-1.16646 IS DISTORTING EXCESSIVELY.
   ELEMENT SILICON FINAL V1-1.17401 IS DISTORTING EXCESSIVELY.
   ELEMENT SILICON FINAL V1-1.17669 IS DISTORTING EXCESSIVELY.
   ELEMENT SILICON FINAL V1-1.17970 IS DISTORTING EXCESSIVELY.
   ELEMENT SILICON FINAL V1-1.17970 IS DISTORTING EXCESSIVELY.
   ELEMENT SILICON FINAL V1-1.17970 IS DISTORTING EXCESSIVELY.
   ELEMENT SILICON FINAL V1-1.17972 IS DISTORTING EXCESSIVELY.
   ELEMENT SILICON FINAL V1-1.17972 IS DISTORTING EXCESSIVELY.
   ELEMENT SILICON FINAL V1-1.17972 IS DISTORTING EXCESSIVELY.
   ELEMENT SILICON FINAL V1-1.17972 IS DISTORTING EXCESSIVELY.
   ELEMENT SILICON FINAL V1-1.17975 IS DISTORTING EXCESSIVELY.
   ELEMENT SILICON FINAL V1-1.17975 IS DISTORTING EXCESSIVELY.
   ELEMENT SILICON FINAL V1-1.17975 IS DISTORTING EXCESSIVELY.
   ELEMENT SILICON FINAL V1-1.17975 IS DISTORTING EXCESSIVELY.
   ELEMENT SILICON FINAL V1-1.18886 IS DISTORTING EXCESSIVELY.
   ELEMENT SILICON FINAL V1-1.18886 IS DISTORTING EXCESSIVELY.
   ELEMENT SILICON FINAL V1-1.19043 IS DISTORTING EXCESSIVELY.
   ELEMENT SILICON FINAL V1-1.19043 IS DISTORTING EXCESSIVELY.
   ELEMENT SILICON FINAL V1-1.19043 IS DISTORTING EXCESSIVELY.
   ELEMENT SILICON FINAL V1-1.19043 IS DISTORTING EXCESSIVELY.
   ELEMENT SILICON FINAL V1-1.19044 IS DISTORTING EXCESSIVELY.
   ELEMENT SILICON FINAL V1-1.19044 IS DISTORTING EXCESSIVELY.
   ELEMENT SILICON FINAL V1-1.19044 IS DISTORTING EXCESSIVELY.
   ELEMENT SILICON FINAL V1-1.19044 IS DISTORTING EXCESSIVELY.
   ELEMENT SILICON FINAL V1-1.19045 IS DISTORTING EXCESSIVELY.
   ELEMENT SILICON FINAL V1-1.19045 IS DISTORTING EXCESSIVELY.
   ELEMENT SILICON FINAL V1-1.19045 IS DISTORTING EXCESSIVELY.
   ELEMENT SILICON FINAL V1-1.19045 IS DISTORTING EXCESSIVELY.
   ELEMENT SILICON FINAL V1-1.19047 IS DISTORTING EXCESSIVELY.
   ELEMENT SILICON FINAL V1-1.19665 IS DISTORTING EXCESSIVELY.
   ELEMENT SILICON FINAL V1-1.19665 IS DISTORTING EXCESSIVELY.
   ELEMENT SILICON FINAL V1-1.19668 IS DISTORTING EXCESSIVELY.
   ELEMENT SILICON FINAL V1-1.19668 IS DISTORTING EXCESSIVELY.
   ELEMENT SILICON FINAL V1-1.19672 IS DISTORTING EXCESSIVELY.
   ELEMENT SILICON FINAL V1-1.19672 IS DISTORTING EXCESSIVELY.
   ELEMENT SILICON FINAL V1-1.20383 IS DISTORTING EXCESSIVELY.
   ELEMENT SILICON FINAL V1-1.21421 IS DISTORTING EXCESSIVELY.
   ELEMENT SILICON FINAL V1-1.21421 IS DISTORTING EXCESSIVELY.
   ELEMENT SILICON FINAL V1-1.21421 IS DISTORTING EXCESSIVELY.
   ELEMENT SILICON FINAL V1-1.21421 IS DISTORTING EXCESSIVELY.
   ELEMENT SILICON FINAL V1-1.21422 IS DISTORTING EXCESSIVELY.
   ELEMENT SILICON FINAL V1-1.21422 IS DISTORTING EXCESSIVELY.
   ELEMENT SILICON FINAL V1-1.21423 IS DISTORTING EXCESSIVELY.
   ELEMENT SILICON FINAL V1-1.21423 IS DISTORTING EXCESSIVELY.
   ELEMENT SILICON FINAL V1-1.21423 IS DISTORTING EXCESSIVELY.
   ELEMENT SILICON FINAL V1-1.21423 IS DISTORTING EXCESSIVELY.
   ELEMENT SILICON FINAL V1-1.22347 IS DISTORTING EXCESSIVELY.
   ELEMENT SILICON FINAL V1-1.22347 IS DISTORTING EXCESSIVELY.
   ELEMENT SILICON FINAL V1-1.22347 IS DISTORTING EXCESSIVELY.
   ELEMENT SILICON FINAL V1-1.22347 IS DISTORTING EXCESSIVELY.
   ELEMENT SILICON FINAL V1-1.22351 IS DISTORTING EXCESSIVELY.
   ELEMENT SILICON FINAL V1-1.22351 IS DISTORTING EXCESSIVELY.
   ELEMENT SILICON FINAL V1-1.22351 IS DISTORTING EXCESSIVELY.
   ELEMENT SILICON FINAL V1-1.22351 IS DISTORTING EXCESSIVELY.
   ELEMENT SILICON FINAL V1-1.23433 IS DISTORTING EXCESSIVELY.
   ELEMENT SILICON FINAL V1-1.23433 IS DISTORTING EXCESSIVELY.
   ELEMENT SILICON FINAL V1-1.23438 IS DISTORTING EXCESSIVELY.
   ELEMENT SILICON FINAL V1-1.23438 IS DISTORTING EXCESSIVELY.
   ELEMENT SILICON FINAL V1-1.23438 IS DISTORTING EXCESSIVELY.
   ELEMENT SILICON FINAL V1-1.23439 IS DISTORTING EXCESSIVELY.
   ELEMENT SILICON FINAL V1-1.23439 IS DISTORTING EXCESSIVELY.
   ELEMENT SILICON FINAL V1-1.23439 IS DISTORTING EXCESSIVELY.
   ELEMENT SILICON FINAL V1-1.24301 IS DISTORTING EXCESSIVELY.
   ELEMENT SILICON FINAL V1-1.24301 IS DISTORTING EXCESSIVELY.
   ELEMENT SILICON FINAL V1-1.24706 IS DISTORTING EXCESSIVELY.
   ELEMENT SILICON FINAL V1-1.24706 IS DISTORTING EXCESSIVELY.
   ELEMENT SILICON FINAL V1-1.24706 IS DISTORTING EXCESSIVELY.
   ELEMENT SILICON FINAL V1-1.24706 IS DISTORTING EXCESSIVELY.
   ELEMENT SILICON FINAL V1-1.24708 IS DISTORTING EXCESSIVELY.
   ELEMENT SILICON FINAL V1-1.24708 IS DISTORTING EXCESSIVELY.
   ELEMENT SILICON FINAL V1-1.24708 IS DISTORTING EXCESSIVELY.
   ELEMENT SILICON FINAL V1-1.24708 IS DISTORTING EXCESSIVELY.
   ELEMENT SILICON FINAL V1-1.25107 IS DISTORTING EXCESSIVELY.
   ELEMENT SILICON FINAL V1-1.25107 IS DISTORTING EXCESSIVELY.
   ELEMENT SILICON FINAL V1-1.25110 IS DISTORTING EXCESSIVELY.
   ELEMENT SILICON FINAL V1-1.25169 IS DISTORTING EXCESSIVELY.
   ELEMENT SILICON FINAL V1-1.25169 IS DISTORTING EXCESSIVELY.
   ELEMENT SILICON FINAL V1-1.25169 IS DISTORTING EXCESSIVELY.
   ELEMENT SILICON FINAL V1-1.25172 IS DISTORTING EXCESSIVELY.
   ELEMENT SILICON FINAL V1-1.25175 IS DISTORTING EXCESSIVELY.
   ELEMENT SILICON FINAL V1-1.25175 IS DISTORTING EXCESSIVELY.
   ELEMENT SILICON FINAL V1-1.25175 IS DISTORTING EXCESSIVELY.
   ELEMENT SILICON FINAL V1-1.25175 IS DISTORTING EXCESSIVELY.
   ELEMENT SILICON FINAL V1-1.25385 IS DISTORTING EXCESSIVELY.
   ELEMENT SILICON FINAL V1-1.25385 IS DISTORTING EXCESSIVELY.
   ELEMENT SILICON FINAL V1-1.25385 IS DISTORTING EXCESSIVELY.
   ELEMENT SILICON FINAL V1-1.25385 IS DISTORTING EXCESSIVELY.
   ELEMENT SILICON FINAL V1-1.25513 IS DISTORTING EXCESSIVELY.
   ELEMENT SILICON FINAL V1-1.25513 IS DISTORTING EXCESSIVELY.
   ELEMENT SILICON FINAL V1-1.25513 IS DISTORTING EXCESSIVELY.
   ELEMENT SILICON FINAL V1-1.25520 IS DISTORTING EXCESSIVELY.
   ELEMENT SILICON FINAL V1-1.25520 IS DISTORTING EXCESSIVELY.
   ELEMENT SILICON FINAL V1-1.25520 IS DISTORTING EXCESSIVELY.
   ELEMENT SILICON FINAL V1-1.25520 IS DISTORTING EXCESSIVELY.
   ELEMENT SILICON FINAL V1-1.25673 IS DISTORTING EXCESSIVELY.
   ELEMENT SILICON FINAL V1-1.25673 IS DISTORTING EXCESSIVELY.
   ELEMENT SILICON FINAL V1-1.25677 IS DISTORTING EXCESSIVELY.
   ELEMENT SILICON FINAL V1-1.25677 IS DISTORTING EXCESSIVELY.
   ELEMENT SILICON FINAL V1-1.25677 IS DISTORTING EXCESSIVELY.
   ELEMENT SILICON FINAL V1-1.25677 IS DISTORTING EXCESSIVELY.
   ELEMENT SILICON FINAL V1-1.25849 IS DISTORTING EXCESSIVELY.
   ELEMENT SILICON FINAL V1-1.25849 IS DISTORTING EXCESSIVELY.
   ELEMENT SILICON FINAL V1-1.25849 IS DISTORTING EXCESSIVELY.
   ELEMENT SILICON FINAL V1-1.25849 IS DISTORTING EXCESSIVELY.
   ELEMENT SILICON FINAL V1-1.25851 IS DISTORTING EXCESSIVELY.
   ELEMENT SILICON FINAL V1-1.25851 IS DISTORTING EXCESSIVELY.
   ELEMENT SILICON FINAL V1-1.25851 IS DISTORTING EXCESSIVELY.
   ELEMENT SILICON FINAL V1-1.25851 IS DISTORTING EXCESSIVELY.
   ELEMENT SILICON FINAL V1-1.25854 IS DISTORTING EXCESSIVELY.
   ELEMENT SILICON FINAL V1-1.25854 IS DISTORTING EXCESSIVELY.
   ELEMENT SILICON FINAL V1-1.25854 IS DISTORTING EXCESSIVELY.
   ELEMENT SILICON FINAL V1-1.25854 IS DISTORTING EXCESSIVELY.
   ELEMENT SILICON FINAL V1-1.25855 IS DISTORTING EXCESSIVELY.
   ELEMENT SILICON FINAL V1-1.25855 IS DISTORTING EXCESSIVELY.
   ELEMENT SILICON FINAL V1-1.25855 IS DISTORTING EXCESSIVELY.
   ELEMENT SILICON FINAL V1-1.25855 IS DISTORTING EXCESSIVELY.
   ELEMENT SILICON FINAL V1-1.25856 IS DISTORTING EXCESSIVELY.
   ELEMENT SILICON FINAL V1-1.25856 IS DISTORTING EXCESSIVELY.
   ELEMENT SILICON FINAL V1-1.25856 IS DISTORTING EXCESSIVELY.
   ELEMENT SILICON FINAL V1-1.26297 IS DISTORTING EXCESSIVELY.
   ELEMENT SILICON FINAL V1-1.26297 IS DISTORTING EXCESSIVELY.
   ELEMENT SILICON FINAL V1-1.26301 IS DISTORTING EXCESSIVELY.
   ELEMENT SILICON FINAL V1-1.26303 IS DISTORTING EXCESSIVELY.
   ELEMENT SILICON FINAL V1-1.26303 IS DISTORTING EXCESSIVELY.
   ELEMENT SILICON FINAL V1-1.26413 IS DISTORTING EXCESSIVELY.
   ELEMENT SILICON FINAL V1-1.26413 IS DISTORTING EXCESSIVELY.
   ELEMENT SILICON FINAL V1-1.26413 IS DISTORTING EXCESSIVELY.
   ELEMENT SILICON FINAL V1-1.26413 IS DISTORTING EXCESSIVELY.
   ELEMENT SILICON FINAL V1-1.26415 IS DISTORTING EXCESSIVELY.
   ELEMENT SILICON FINAL V1-1.26537 IS DISTORTING EXCESSIVELY.
   ELEMENT SILICON FINAL V1-1.26595 IS DISTORTING EXCESSIVELY.
   ELEMENT SILICON FINAL V1-1.26595 IS DISTORTING EXCESSIVELY.
   ELEMENT SILICON FINAL V1-1.26598 IS DISTORTING EXCESSIVELY.
   ELEMENT SILICON FINAL V1-1.26598 IS DISTORTING EXCESSIVELY.
   ELEMENT SILICON FINAL V1-1.26665 IS DISTORTING EXCESSIVELY.
   ELEMENT SILICON FINAL V1-1.26670 IS DISTORTING EXCESSIVELY.
   ELEMENT SILICON FINAL V1-1.26670 IS DISTORTING EXCESSIVELY.
   ELEMENT SILICON FINAL V1-1.26670 IS DISTORTING EXCESSIVELY.
   ELEMENT SILICON FINAL V1-1.26781 IS DISTORTING EXCESSIVELY.
   ELEMENT SILICON FINAL V1-1.26781 IS DISTORTING EXCESSIVELY.
   ELEMENT SILICON FINAL V1-1.26783 IS DISTORTING EXCESSIVELY.
   ELEMENT SILICON FINAL V1-1.26856 IS DISTORTING EXCESSIVELY.
   ELEMENT SILICON FINAL V1-1.26856 IS DISTORTING EXCESSIVELY.
   ELEMENT SILICON FINAL V1-1.26889 IS DISTORTING EXCESSIVELY.
   ELEMENT SILICON FINAL V1-1.26889 IS DISTORTING EXCESSIVELY.
   ELEMENT SILICON FINAL V1-1.26890 IS DISTORTING EXCESSIVELY.
   ELEMENT SILICON FINAL V1-1.26890 IS DISTORTING EXCESSIVELY.
   ELEMENT SILICON FINAL V1-1.26890 IS DISTORTING EXCESSIVELY.
   ELEMENT SILICON FINAL V1-1.26890 IS DISTORTING EXCESSIVELY.
   ELEMENT SILICON FINAL V1-1.26892 IS DISTORTING EXCESSIVELY.
   ELEMENT SILICON FINAL V1-1.26893 IS DISTORTING EXCESSIVELY.
   ELEMENT SILICON FINAL V1-1.27092 IS DISTORTING EXCESSIVELY.
   ELEMENT SILICON FINAL V1-1.27095 IS DISTORTING EXCESSIVELY.
   ELEMENT SILICON FINAL V1-1.27095 IS DISTORTING EXCESSIVELY.
   ELEMENT SILICON FINAL V1-1.27095 IS DISTORTING EXCESSIVELY.
   ELEMENT SILICON FINAL V1-1.27242 IS DISTORTING EXCESSIVELY.
   ELEMENT SILICON FINAL V1-1.27276 IS DISTORTING EXCESSIVELY.
   ELEMENT SILICON FINAL V1-1.27277 IS DISTORTING EXCESSIVELY.
   ELEMENT SILICON FINAL V1-1.27277 IS DISTORTING EXCESSIVELY.
   ELEMENT SILICON FINAL V1-1.27278 IS DISTORTING EXCESSIVELY.
   ELEMENT SILICON FINAL V1-1.27278 IS DISTORTING EXCESSIVELY.
   ELEMENT SILICON FINAL V1-1.27425 IS DISTORTING EXCESSIVELY.
   ELEMENT SILICON FINAL V1-1.27425 IS DISTORTING EXCESSIVELY.
   ELEMENT SILICON FINAL V1-1.27425 IS DISTORTING EXCESSIVELY.
   ELEMENT SILICON FINAL V1-1.27425 IS DISTORTING EXCESSIVELY.
   ELEMENT SILICON FINAL V1-1.27430 IS DISTORTING EXCESSIVELY.
   ELEMENT SILICON FINAL V1-1.27622 IS DISTORTING EXCESSIVELY.
   ELEMENT SILICON FINAL V1-1.27622 IS DISTORTING EXCESSIVELY.
   ELEMENT SILICON FINAL V1-1.27622 IS DISTORTING EXCESSIVELY.
   ELEMENT SILICON FINAL V1-1.27622 IS DISTORTING EXCESSIVELY.
   ELEMENT SILICON FINAL V1-1.27623 IS DISTORTING EXCESSIVELY.
   ELEMENT SILICON FINAL V1-1.27623 IS DISTORTING EXCESSIVELY.
   ELEMENT SILICON FINAL V1-1.27624 IS DISTORTING EXCESSIVELY.
   ELEMENT SILICON FINAL V1-1.27873 IS DISTORTING EXCESSIVELY.
   ELEMENT SILICON FINAL V1-1.27879 IS DISTORTING EXCESSIVELY.
   ELEMENT SILICON FINAL V1-1.27879 IS DISTORTING EXCESSIVELY.
   ELEMENT SILICON FINAL V1-1.28001 IS DISTORTING EXCESSIVELY.
   ELEMENT SILICON FINAL V1-1.28001 IS DISTORTING EXCESSIVELY.
   ELEMENT SILICON FINAL V1-1.28001 IS DISTORTING EXCESSIVELY.
   ELEMENT SILICON FINAL V1-1.28003 IS DISTORTING EXCESSIVELY.
   ELEMENT SILICON FINAL V1-1.28003 IS DISTORTING EXCESSIVELY.
   ELEMENT SILICON FINAL V1-1.28003 IS DISTORTING EXCESSIVELY.
   ELEMENT SILICON FINAL V1-1.28004 IS DISTORTING EXCESSIVELY.
   ELEMENT SILICON FINAL V1-1.28004 IS DISTORTING EXCESSIVELY.
   ELEMENT SILICON FINAL V1-1.28004 IS DISTORTING EXCESSIVELY.
   ELEMENT SILICON FINAL V1-1.28004 IS DISTORTING EXCESSIVELY.
   ELEMENT SILICON FINAL V1-1.28008 IS DISTORTING EXCESSIVELY.
   ELEMENT SILICON FINAL V1-1.28008 IS DISTORTING EXCESSIVELY.
   ELEMENT SILICON FINAL V1-1.28008 IS DISTORTING EXCESSIVELY.
   ELEMENT SILICON FINAL V1-1.29267 IS DISTORTING EXCESSIVELY.
   ELEMENT SILICON FINAL V1-1.29267 IS DISTORTING EXCESSIVELY.
   ELEMENT SILICON FINAL V1-1.29267 IS DISTORTING EXCESSIVELY.
   ELEMENT SILICON FINAL V1-1.29267 IS DISTORTING EXCESSIVELY.
   ELEMENT SILICON FINAL V1-1.29800 IS DISTORTING EXCESSIVELY.
   ELEMENT SILICON FINAL V1-1.30162 IS DISTORTING EXCESSIVELY.
   ELEMENT SILICON FINAL V1-1.30162 IS DISTORTING EXCESSIVELY.
   ELEMENT SILICON FINAL V1-1.30163 IS DISTORTING EXCESSIVELY.
   ELEMENT SILICON FINAL V1-1.30163 IS DISTORTING EXCESSIVELY.
   ELEMENT SILICON FINAL V1-1.30167 IS DISTORTING EXCESSIVELY.
   ELEMENT SILICON FINAL V1-1.30167 IS DISTORTING EXCESSIVELY.
   ELEMENT SILICON FINAL V1-1.30167 IS DISTORTING EXCESSIVELY.
   ELEMENT SILICON FINAL V1-1.295 IS DISTORTING EXCESSIVELY.
   ELEMENT SILICON FINAL V1-1.295 IS DISTORTING EXCESSIVELY.
   ELEMENT SILICON FINAL V1-1.398 IS DISTORTING EXCESSIVELY.
   ELEMENT SILICON FINAL V1-1.398 IS DISTORTING EXCESSIVELY.
   ELEMENT SILICON FINAL V1-1.421 IS DISTORTING EXCESSIVELY.
   ELEMENT SILICON FINAL V1-1.421 IS DISTORTING EXCESSIVELY.
   ELEMENT SILICON FINAL V1-1.421 IS DISTORTING EXCESSIVELY.
   ELEMENT SILICON FINAL V1-1.421 IS DISTORTING EXCESSIVELY.
   ELEMENT SILICON FINAL V1-1.602 IS DISTORTING EXCESSIVELY.
   ELEMENT SILICON FINAL V1-1.607 IS DISTORTING EXCESSIVELY.
   ELEMENT SILICON FINAL V1-1.651 IS DISTORTING EXCESSIVELY.
   ELEMENT SILICON FINAL V1-1.651 IS DISTORTING EXCESSIVELY.
   ELEMENT SILICON FINAL V1-1.651 IS DISTORTING EXCESSIVELY.
   ELEMENT SILICON FINAL V1-1.703 IS DISTORTING EXCESSIVELY.
   ELEMENT SILICON FINAL V1-1.703 IS DISTORTING EXCESSIVELY.
   ELEMENT SILICON FINAL V1-1.863 IS DISTORTING EXCESSIVELY.
   ELEMENT SILICON FINAL V1-1.881 IS DISTORTING EXCESSIVELY.
   ELEMENT SILICON FINAL V1-1.881 IS DISTORTING EXCESSIVELY.
   ELEMENT SILICON FINAL V1-1.881 IS DISTORTING EXCESSIVELY.
   ELEMENT SILICON FINAL V1-1.882 IS DISTORTING EXCESSIVELY.
   ELEMENT SILICON FINAL V1-1.882 IS DISTORTING EXCESSIVELY.
   ELEMENT SILICON FINAL V1-1.882 IS DISTORTING EXCESSIVELY.
   ELEMENT SILICON FINAL V1-1.1078 IS DISTORTING EXCESSIVELY.
   ELEMENT SILICON FINAL V1-1.1078 IS DISTORTING EXCESSIVELY.
   ELEMENT SILICON FINAL V1-1.1078 IS DISTORTING EXCESSIVELY.
   ELEMENT SILICON FINAL V1-1.1078 IS DISTORTING EXCESSIVELY.
   ELEMENT SILICON FINAL V1-1.1079 IS DISTORTING EXCESSIVELY.
   ELEMENT SILICON FINAL V1-1.1080 IS DISTORTING EXCESSIVELY.
   ELEMENT SILICON FINAL V1-1.1080 IS DISTORTING EXCESSIVELY.
   ELEMENT SILICON FINAL V1-1.1080 IS DISTORTING EXCESSIVELY.
   ELEMENT SILICON FINAL V1-1.1386 IS DISTORTING EXCESSIVELY.
   ELEMENT SILICON FINAL V1-1.1386 IS DISTORTING EXCESSIVELY.
   ELEMENT SILICON FINAL V1-1.1386 IS DISTORTING EXCESSIVELY.
   ELEMENT SILICON FINAL V1-1.1386 IS DISTORTING EXCESSIVELY.
   ELEMENT SILICON FINAL V1-1.1387 IS DISTORTING EXCESSIVELY.
   ELEMENT SILICON FINAL V1-1.1387 IS DISTORTING EXCESSIVELY.
   ELEMENT SILICON FINAL V1-1.1387 IS DISTORTING EXCESSIVELY.
   ELEMENT SILICON FINAL V1-1.1387 IS DISTORTING EXCESSIVELY.
   ELEMENT SILICON FINAL V1-1.1388 IS DISTORTING EXCESSIVELY.
   ELEMENT SILICON FINAL V1-1.1388 IS DISTORTING EXCESSIVELY.
   ELEMENT SILICON FINAL V1-1.1388 IS DISTORTING EXCESSIVELY.
   ELEMENT SILICON FINAL V1-1.1388 IS DISTORTING EXCESSIVELY.
   ELEMENT SILICON FINAL V1-1.1390 IS DISTORTING EXCESSIVELY.
   ELEMENT SILICON FINAL V1-1.1390 IS DISTORTING EXCESSIVELY.
   ELEMENT SILICON FINAL V1-1.1390 IS DISTORTING EXCESSIVELY.
   ELEMENT SILICON FINAL V1-1.1390 IS DISTORTING EXCESSIVELY.
   ELEMENT SILICON FINAL V1-1.1391 IS DISTORTING EXCESSIVELY.
   ELEMENT SILICON FINAL V1-1.1391 IS DISTORTING EXCESSIVELY.
   ELEMENT SILICON FINAL V1-1.1391 IS DISTORTING EXCESSIVELY.
   ELEMENT SILICON FINAL V1-1.1391 IS DISTORTING EXCESSIVELY.
   ELEMENT SILICON FINAL V1-1.1392 IS DISTORTING EXCESSIVELY.
   ELEMENT SILICON FINAL V1-1.1392 IS DISTORTING EXCESSIVELY.
   ELEMENT SILICON FINAL V1-1.1392 IS DISTORTING EXCESSIVELY.
   ELEMENT SILICON FINAL V1-1.1392 IS DISTORTING EXCESSIVELY.
   ELEMENT SILICON FINAL V1-1.2144 IS DISTORTING EXCESSIVELY.
   ELEMENT SILICON FINAL V1-1.2144 IS DISTORTING EXCESSIVELY.
   ELEMENT SILICON FINAL V1-1.2224 IS DISTORTING EXCESSIVELY.
   ELEMENT SILICON FINAL V1-1.2224 IS DISTORTING EXCESSIVELY.
   ELEMENT SILICON FINAL V1-1.2224 IS DISTORTING EXCESSIVELY.
   ELEMENT SILICON FINAL V1-1.2224 IS DISTORTING EXCESSIVELY.
   ELEMENT SILICON FINAL V1-1.2326 IS DISTORTING EXCESSIVELY.
   ELEMENT SILICON FINAL V1-1.2326 IS DISTORTING EXCESSIVELY.
   ELEMENT SILICON FINAL V1-1.2378 IS DISTORTING EXCESSIVELY.
   ELEMENT SILICON FINAL V1-1.2380 IS DISTORTING EXCESSIVELY.
   ELEMENT SILICON FINAL V1-1.2384 IS DISTORTING EXCESSIVELY.
   ELEMENT SILICON FINAL V1-1.2384 IS DISTORTING EXCESSIVELY.
   ELEMENT SILICON FINAL V1-1.2433 IS DISTORTING EXCESSIVELY.
   ELEMENT SILICON FINAL V1-1.2433 IS DISTORTING EXCESSIVELY.
   ELEMENT SILICON FINAL V1-1.2514 IS DISTORTING EXCESSIVELY.
   ELEMENT SILICON FINAL V1-1.2514 IS DISTORTING EXCESSIVELY.
   ELEMENT SILICON FINAL V1-1.2514 IS DISTORTING EXCESSIVELY.
   ELEMENT SILICON FINAL V1-1.2515 IS DISTORTING EXCESSIVELY.
   ELEMENT SILICON FINAL V1-1.2645 IS DISTORTING EXCESSIVELY.
   ELEMENT SILICON FINAL V1-1.2647 IS DISTORTING EXCESSIVELY.
   ELEMENT SILICON FINAL V1-1.2647 IS DISTORTING EXCESSIVELY.
   ELEMENT SILICON FINAL V1-1.2647 IS DISTORTING EXCESSIVELY.
   ELEMENT SILICON FINAL V1-1.2801 IS DISTORTING EXCESSIVELY.
   ELEMENT SILICON FINAL V1-1.2801 IS DISTORTING EXCESSIVELY.
   ELEMENT SILICON FINAL V1-1.2808 IS DISTORTING EXCESSIVELY.
   ELEMENT SILICON FINAL V1-1.2808 IS DISTORTING EXCESSIVELY.
   ELEMENT SILICON FINAL V1-1.2808 IS DISTORTING EXCESSIVELY.
   ELEMENT SILICON FINAL V1-1.2873 IS DISTORTING EXCESSIVELY.
   ELEMENT SILICON FINAL V1-1.2873 IS DISTORTING EXCESSIVELY.
   ELEMENT SILICON FINAL V1-1.2873 IS DISTORTING EXCESSIVELY.
   ELEMENT SILICON FINAL V1-1.2873 IS DISTORTING EXCESSIVELY.
   ELEMENT SILICON FINAL V1-1.2878 IS DISTORTING EXCESSIVELY.
   ELEMENT SILICON FINAL V1-1.2941 IS DISTORTING EXCESSIVELY.
   ELEMENT SILICON FINAL V1-1.2942 IS DISTORTING EXCESSIVELY.
   ELEMENT SILICON FINAL V1-1.2942 IS DISTORTING EXCESSIVELY.
   ELEMENT SILICON FINAL V1-1.2942 IS DISTORTING EXCESSIVELY.
   ELEMENT SILICON FINAL V1-1.2942 IS DISTORTING EXCESSIVELY.
   ELEMENT SILICON FINAL V1-1.2943 IS DISTORTING EXCESSIVELY.
   ELEMENT SILICON FINAL V1-1.2943 IS DISTORTING EXCESSIVELY.
   ELEMENT SILICON FINAL V1-1.2943 IS DISTORTING EXCESSIVELY.
   ELEMENT SILICON FINAL V1-1.2943 IS DISTORTING EXCESSIVELY.
   ELEMENT SILICON FINAL V1-1.3065 IS DISTORTING EXCESSIVELY.
   ELEMENT SILICON FINAL V1-1.3065 IS DISTORTING EXCESSIVELY.
   ELEMENT SILICON FINAL V1-1.3065 IS DISTORTING EXCESSIVELY.
   ELEMENT SILICON FINAL V1-1.3470 IS DISTORTING EXCESSIVELY.
   ELEMENT SILICON FINAL V1-1.3470 IS DISTORTING EXCESSIVELY.
   ELEMENT SILICON FINAL V1-1.3470 IS DISTORTING EXCESSIVELY.
   ELEMENT SILICON FINAL V1-1.3470 IS DISTORTING EXCESSIVELY.
   ELEMENT SILICON FINAL V1-1.3472 IS DISTORTING EXCESSIVELY.
   ELEMENT SILICON FINAL V1-1.3472 IS DISTORTING EXCESSIVELY.
   ELEMENT SILICON FINAL V1-1.3472 IS DISTORTING EXCESSIVELY.
   ELEMENT SILICON FINAL V1-1.3472 IS DISTORTING EXCESSIVELY.
   ELEMENT SILICON FINAL V1-1.3648 IS DISTORTING EXCESSIVELY.
   ELEMENT SILICON FINAL V1-1.3732 IS DISTORTING EXCESSIVELY.
   ELEMENT SILICON FINAL V1-1.3732 IS DISTORTING EXCESSIVELY.
   ELEMENT SILICON FINAL V1-1.3732 IS DISTORTING EXCESSIVELY.
   ELEMENT SILICON FINAL V1-1.3732 IS DISTORTING EXCESSIVELY.
   ELEMENT SILICON FINAL V1-1.3733 IS DISTORTING EXCESSIVELY.
   ELEMENT SILICON FINAL V1-1.3733 IS DISTORTING EXCESSIVELY.
   ELEMENT SILICON FINAL V1-1.3733 IS DISTORTING EXCESSIVELY.
   ELEMENT SILICON FINAL V1-1.3733 IS DISTORTING EXCESSIVELY.
   ELEMENT SILICON FINAL V1-1.3734 IS DISTORTING EXCESSIVELY.
   ELEMENT SILICON FINAL V1-1.3734 IS DISTORTING EXCESSIVELY.
   ELEMENT SILICON FINAL V1-1.3735 IS DISTORTING EXCESSIVELY.
   ELEMENT SILICON FINAL V1-1.3735 IS DISTORTING EXCESSIVELY.
   ELEMENT SILICON FINAL V1-1.3735 IS DISTORTING EXCESSIVELY.
   ELEMENT SILICON FINAL V1-1.3736 IS DISTORTING EXCESSIVELY.
   ELEMENT SILICON FINAL V1-1.3736 IS DISTORTING EXCESSIVELY.
   ELEMENT SILICON FINAL V1-1.3736 IS DISTORTING EXCESSIVELY.
   ELEMENT SILICON FINAL V1-1.4002 IS DISTORTING EXCESSIVELY.
   ELEMENT SILICON FINAL V1-1.4004 IS DISTORTING EXCESSIVELY.
   ELEMENT SILICON FINAL V1-1.4157 IS DISTORTING EXCESSIVELY.
   ELEMENT SILICON FINAL V1-1.4157 IS DISTORTING EXCESSIVELY.
   ELEMENT SILICON FINAL V1-1.4161 IS DISTORTING EXCESSIVELY.
   ELEMENT SILICON FINAL V1-1.4161 IS DISTORTING EXCESSIVELY.
   ELEMENT SILICON FINAL V1-1.4161 IS DISTORTING EXCESSIVELY.
   ELEMENT SILICON FINAL V1-1.4162 IS DISTORTING EXCESSIVELY.
   ELEMENT SILICON FINAL V1-1.4162 IS DISTORTING EXCESSIVELY.
   ELEMENT SILICON FINAL V1-1.4162 IS DISTORTING EXCESSIVELY.
   ELEMENT SILICON FINAL V1-1.4162 IS DISTORTING EXCESSIVELY.
   ELEMENT SILICON FINAL V1-1.4163 IS DISTORTING EXCESSIVELY.
   ELEMENT SILICON FINAL V1-1.4163 IS DISTORTING EXCESSIVELY.
   ELEMENT SILICON FINAL V1-1.4163 IS DISTORTING EXCESSIVELY.
   ELEMENT SILICON FINAL V1-1.4163 IS DISTORTING EXCESSIVELY.
   ELEMENT SILICON FINAL V1-1.4165 IS DISTORTING EXCESSIVELY.
   ELEMENT SILICON FINAL V1-1.4166 IS DISTORTING EXCESSIVELY.
   ELEMENT SILICON FINAL V1-1.4166 IS DISTORTING EXCESSIVELY.
   ELEMENT SILICON FINAL V1-1.4457 IS DISTORTING EXCESSIVELY.
   ELEMENT SILICON FINAL V1-1.4457 IS DISTORTING EXCESSIVELY.
   ELEMENT SILICON FINAL V1-1.4621 IS DISTORTING EXCESSIVELY.
   ELEMENT SILICON FINAL V1-1.4621 IS DISTORTING EXCESSIVELY.
   ELEMENT SILICON FINAL V1-1.4621 IS DISTORTING EXCESSIVELY.
   ELEMENT SILICON FINAL V1-1.4622 IS DISTORTING EXCESSIVELY.
   ELEMENT SILICON FINAL V1-1.4622 IS DISTORTING EXCESSIVELY.
   ELEMENT SILICON FINAL V1-1.4622 IS DISTORTING EXCESSIVELY.
   ELEMENT SILICON FINAL V1-1.4623 IS DISTORTING EXCESSIVELY.
   ELEMENT SILICON FINAL V1-1.4624 IS DISTORTING EXCESSIVELY.
   ELEMENT SILICON FINAL V1-1.4624 IS DISTORTING EXCESSIVELY.
   ELEMENT SILICON FINAL V1-1.4721 IS DISTORTING EXCESSIVELY.
   ELEMENT SILICON FINAL V1-1.4721 IS DISTORTING EXCESSIVELY.
   ELEMENT SILICON FINAL V1-1.4721 IS DISTORTING EXCESSIVELY.
   ELEMENT SILICON FINAL V1-1.4722 IS DISTORTING EXCESSIVELY.
   ELEMENT SILICON FINAL V1-1.4722 IS DISTORTING EXCESSIVELY.
   ELEMENT SILICON FINAL V1-1.4722 IS DISTORTING EXCESSIVELY.
   ELEMENT SILICON FINAL V1-1.4722 IS DISTORTING EXCESSIVELY.
   ELEMENT SILICON FINAL V1-1.4846 IS DISTORTING EXCESSIVELY.
   ELEMENT SILICON FINAL V1-1.4846 IS DISTORTING EXCESSIVELY.
   ELEMENT SILICON FINAL V1-1.4846 IS DISTORTING EXCESSIVELY.
   ELEMENT SILICON FINAL V1-1.4846 IS DISTORTING EXCESSIVELY.
   ELEMENT SILICON FINAL V1-1.4847 IS DISTORTING EXCESSIVELY.
   ELEMENT SILICON FINAL V1-1.4847 IS DISTORTING EXCESSIVELY.
   ELEMENT SILICON FINAL V1-1.4847 IS DISTORTING EXCESSIVELY.
   ELEMENT SILICON FINAL V1-1.4847 IS DISTORTING EXCESSIVELY.
   ELEMENT SILICON FINAL V1-1.4988 IS DISTORTING EXCESSIVELY.
   ELEMENT SILICON FINAL V1-1.4988 IS DISTORTING EXCESSIVELY.
   ELEMENT SILICON FINAL V1-1.5001 IS DISTORTING EXCESSIVELY.
   ELEMENT SILICON FINAL V1-1.5001 IS DISTORTING EXCESSIVELY.
   ELEMENT SILICON FINAL V1-1.5001 IS DISTORTING EXCESSIVELY.
   ELEMENT SILICON FINAL V1-1.5001 IS DISTORTING EXCESSIVELY.
   ELEMENT SILICON FINAL V1-1.5002 IS DISTORTING EXCESSIVELY.
   ELEMENT SILICON FINAL V1-1.5002 IS DISTORTING EXCESSIVELY.
   ELEMENT SILICON FINAL V1-1.5002 IS DISTORTING EXCESSIVELY.
   ELEMENT SILICON FINAL V1-1.5007 IS DISTORTING EXCESSIVELY.
   ELEMENT SILICON FINAL V1-1.5007 IS DISTORTING EXCESSIVELY.
   ELEMENT SILICON FINAL V1-1.5378 IS DISTORTING EXCESSIVELY.
   ELEMENT SILICON FINAL V1-1.5378 IS DISTORTING EXCESSIVELY.
   ELEMENT SILICON FINAL V1-1.5378 IS DISTORTING EXCESSIVELY.
   ELEMENT SILICON FINAL V1-1.5381 IS DISTORTING EXCESSIVELY.
   ELEMENT SILICON FINAL V1-1.5381 IS DISTORTING EXCESSIVELY.
   ELEMENT SILICON FINAL V1-1.5382 IS DISTORTING EXCESSIVELY.
   ELEMENT SILICON FINAL V1-1.5513 IS DISTORTING EXCESSIVELY.
   ELEMENT SILICON FINAL V1-1.5513 IS DISTORTING EXCESSIVELY.
   ELEMENT SILICON FINAL V1-1.5513 IS DISTORTING EXCESSIVELY.
   ELEMENT SILICON FINAL V1-1.5514 IS DISTORTING EXCESSIVELY.
   ELEMENT SILICON FINAL V1-1.5514 IS DISTORTING EXCESSIVELY.
   ELEMENT SILICON FINAL V1-1.5515 IS DISTORTING EXCESSIVELY.
   ELEMENT SILICON FINAL V1-1.5515 IS DISTORTING EXCESSIVELY.
   ELEMENT SILICON FINAL V1-1.5515 IS DISTORTING EXCESSIVELY.
   ELEMENT SILICON FINAL V1-1.5516 IS DISTORTING EXCESSIVELY.
   ELEMENT SILICON FINAL V1-1.5516 IS DISTORTING EXCESSIVELY.
   ELEMENT SILICON FINAL V1-1.5516 IS DISTORTING EXCESSIVELY.
   ELEMENT SILICON FINAL V1-1.5516 IS DISTORTING EXCESSIVELY.
   ELEMENT SILICON FINAL V1-1.5517 IS DISTORTING EXCESSIVELY.
   ELEMENT SILICON FINAL V1-1.5517 IS DISTORTING EXCESSIVELY.
   ELEMENT SILICON FINAL V1-1.5517 IS DISTORTING EXCESSIVELY.
   ELEMENT SILICON FINAL V1-1.5517 IS DISTORTING EXCESSIVELY.
   ELEMENT SILICON FINAL V1-1.5519 IS DISTORTING EXCESSIVELY.
   ELEMENT SILICON FINAL V1-1.5519 IS DISTORTING EXCESSIVELY.
   ELEMENT SILICON FINAL V1-1.5865 IS DISTORTING EXCESSIVELY.
   ELEMENT SILICON FINAL V1-1.5865 IS DISTORTING EXCESSIVELY.
   ELEMENT SILICON FINAL V1-1.5865 IS DISTORTING EXCESSIVELY.
   ELEMENT SILICON FINAL V1-1.5871 IS DISTORTING EXCESSIVELY.
   ELEMENT SILICON FINAL V1-1.5872 IS DISTORTING EXCESSIVELY.
   ELEMENT SILICON FINAL V1-1.5872 IS DISTORTING EXCESSIVELY.
   ELEMENT SILICON FINAL V1-1.5872 IS DISTORTING EXCESSIVELY.
   ELEMENT SILICON FINAL V1-1.5872 IS DISTORTING EXCESSIVELY.
   ELEMENT SILICON FINAL V1-1.6073 IS DISTORTING EXCESSIVELY.
   ELEMENT SILICON FINAL V1-1.6074 IS DISTORTING EXCESSIVELY.
   ELEMENT SILICON FINAL V1-1.6076 IS DISTORTING EXCESSIVELY.
   ELEMENT SILICON FINAL V1-1.6077 IS DISTORTING EXCESSIVELY.
   ELEMENT SILICON FINAL V1-1.6077 IS DISTORTING EXCESSIVELY.
   ELEMENT SILICON FINAL V1-1.6078 IS DISTORTING EXCESSIVELY.
   ELEMENT SILICON FINAL V1-1.6078 IS DISTORTING EXCESSIVELY.
   ELEMENT SILICON FINAL V1-1.6078 IS DISTORTING EXCESSIVELY.
   ELEMENT SILICON FINAL V1-1.6078 IS DISTORTING EXCESSIVELY.
   ELEMENT SILICON FINAL V1-1.6079 IS DISTORTING EXCESSIVELY.
   ELEMENT SILICON FINAL V1-1.6079 IS DISTORTING EXCESSIVELY.
   ELEMENT SILICON FINAL V1-1.6505 IS DISTORTING EXCESSIVELY.
   ELEMENT SILICON FINAL V1-1.6505 IS DISTORTING EXCESSIVELY.
   ELEMENT SILICON FINAL V1-1.6505 IS DISTORTING EXCESSIVELY.
   ELEMENT SILICON FINAL V1-1.6505 IS DISTORTING EXCESSIVELY.
   ELEMENT SILICON FINAL V1-1.6623 IS DISTORTING EXCESSIVELY.
   ELEMENT SILICON FINAL V1-1.6623 IS DISTORTING EXCESSIVELY.
   ELEMENT SILICON FINAL V1-1.6623 IS DISTORTING EXCESSIVELY.
   ELEMENT SILICON FINAL V1-1.6623 IS DISTORTING EXCESSIVELY.
   ELEMENT SILICON FINAL V1-1.6650 IS DISTORTING EXCESSIVELY.
   ELEMENT SILICON FINAL V1-1.6666 IS DISTORTING EXCESSIVELY.
   ELEMENT SILICON FINAL V1-1.6666 IS DISTORTING EXCESSIVELY.
   ELEMENT SILICON FINAL V1-1.6666 IS DISTORTING EXCESSIVELY.
   ELEMENT SILICON FINAL V1-1.6669 IS DISTORTING EXCESSIVELY.
   ELEMENT SILICON FINAL V1-1.6670 IS DISTORTING EXCESSIVELY.
   ELEMENT SILICON FINAL V1-1.6670 IS DISTORTING EXCESSIVELY.
   ELEMENT SILICON FINAL V1-1.6670 IS DISTORTING EXCESSIVELY.
   ELEMENT SILICON FINAL V1-1.6670 IS DISTORTING EXCESSIVELY.
   ELEMENT SILICON FINAL V1-1.6865 IS DISTORTING EXCESSIVELY.
   ELEMENT SILICON FINAL V1-1.6865 IS DISTORTING EXCESSIVELY.
   ELEMENT SILICON FINAL V1-1.6865 IS DISTORTING EXCESSIVELY.
   ELEMENT SILICON FINAL V1-1.6865 IS DISTORTING EXCESSIVELY.
   ELEMENT SILICON FINAL V1-1.6866 IS DISTORTING EXCESSIVELY.
   ELEMENT SILICON FINAL V1-1.7099 IS DISTORTING EXCESSIVELY.
   ELEMENT SILICON FINAL V1-1.7099 IS DISTORTING EXCESSIVELY.
   ELEMENT SILICON FINAL V1-1.7100 IS DISTORTING EXCESSIVELY.
   ELEMENT SILICON FINAL V1-1.7100 IS DISTORTING EXCESSIVELY.
   ELEMENT SILICON FINAL V1-1.7100 IS DISTORTING EXCESSIVELY.
   ELEMENT SILICON FINAL V1-1.7100 IS DISTORTING EXCESSIVELY.
   ELEMENT SILICON FINAL V1-1.7186 IS DISTORTING EXCESSIVELY.
   ELEMENT SILICON FINAL V1-1.7186 IS DISTORTING EXCESSIVELY.
   ELEMENT SILICON FINAL V1-1.7186 IS DISTORTING EXCESSIVELY.
   ELEMENT SILICON FINAL V1-1.7187 IS DISTORTING EXCESSIVELY.
   ELEMENT SILICON FINAL V1-1.7187 IS DISTORTING EXCESSIVELY.
   ELEMENT SILICON FINAL V1-1.7187 IS DISTORTING EXCESSIVELY.
   ELEMENT SILICON FINAL V1-1.7190 IS DISTORTING EXCESSIVELY.
   ELEMENT SILICON FINAL V1-1.7190 IS DISTORTING EXCESSIVELY.
   ELEMENT SILICON FINAL V1-1.7190 IS DISTORTING EXCESSIVELY.
   ELEMENT SILICON FINAL V1-1.7190 IS DISTORTING EXCESSIVELY.
   ELEMENT SILICON FINAL V1-1.7281 IS DISTORTING EXCESSIVELY.
   ELEMENT SILICON FINAL V1-1.7281 IS DISTORTING EXCESSIVELY.
   ELEMENT SILICON FINAL V1-1.7308 IS DISTORTING EXCESSIVELY.
   ELEMENT SILICON FINAL V1-1.7309 IS DISTORTING EXCESSIVELY.
   ELEMENT SILICON FINAL V1-1.7309 IS DISTORTING EXCESSIVELY.
   ELEMENT SILICON FINAL V1-1.7309 IS DISTORTING EXCESSIVELY.
   ELEMENT SILICON FINAL V1-1.7309 IS DISTORTING EXCESSIVELY.
   ELEMENT SILICON FINAL V1-1.7509 IS DISTORTING EXCESSIVELY.
   ELEMENT SILICON FINAL V1-1.7509 IS DISTORTING EXCESSIVELY.
   ELEMENT SILICON FINAL V1-1.7509 IS DISTORTING EXCESSIVELY.
   ELEMENT SILICON FINAL V1-1.7529 IS DISTORTING EXCESSIVELY.
   ELEMENT SILICON FINAL V1-1.7531 IS DISTORTING EXCESSIVELY.
   ELEMENT SILICON FINAL V1-1.7534 IS DISTORTING EXCESSIVELY.
   ELEMENT SILICON FINAL V1-1.7534 IS DISTORTING EXCESSIVELY.
   ELEMENT SILICON FINAL V1-1.7582 IS DISTORTING EXCESSIVELY.
   ELEMENT SILICON FINAL V1-1.7582 IS DISTORTING EXCESSIVELY.
   ELEMENT SILICON FINAL V1-1.7582 IS DISTORTING EXCESSIVELY.
   ELEMENT SILICON FINAL V1-1.7582 IS DISTORTING EXCESSIVELY.
   ELEMENT SILICON FINAL V1-1.7696 IS DISTORTING EXCESSIVELY.
   ELEMENT SILICON FINAL V1-1.7696 IS DISTORTING EXCESSIVELY.
   ELEMENT SILICON FINAL V1-1.7805 IS DISTORTING EXCESSIVELY.
   ELEMENT SILICON FINAL V1-1.7805 IS DISTORTING EXCESSIVELY.
   ELEMENT SILICON FINAL V1-1.7805 IS DISTORTING EXCESSIVELY.
   ELEMENT SILICON FINAL V1-1.7913 IS DISTORTING EXCESSIVELY.
   ELEMENT SILICON FINAL V1-1.7913 IS DISTORTING EXCESSIVELY.
   ELEMENT SILICON FINAL V1-1.7913 IS DISTORTING EXCESSIVELY.
   ELEMENT SILICON FINAL V1-1.7913 IS DISTORTING EXCESSIVELY.
   ELEMENT SILICON FINAL V1-1.7919 IS DISTORTING EXCESSIVELY.
   ELEMENT SILICON FINAL V1-1.7919 IS DISTORTING EXCESSIVELY.
   ELEMENT SILICON FINAL V1-1.7919 IS DISTORTING EXCESSIVELY.
   ELEMENT SILICON FINAL V1-1.7919 IS DISTORTING EXCESSIVELY.
   ELEMENT SILICON FINAL V1-1.7920 IS DISTORTING EXCESSIVELY.
   ELEMENT SILICON FINAL V1-1.8019 IS DISTORTING EXCESSIVELY.
   ELEMENT SILICON FINAL V1-1.8033 IS DISTORTING EXCESSIVELY.
   ELEMENT SILICON FINAL V1-1.8033 IS DISTORTING EXCESSIVELY.
   ELEMENT SILICON FINAL V1-1.8034 IS DISTORTING EXCESSIVELY.
   ELEMENT SILICON FINAL V1-1.8035 IS DISTORTING EXCESSIVELY.
   ELEMENT SILICON FINAL V1-1.8035 IS DISTORTING EXCESSIVELY.
   ELEMENT SILICON FINAL V1-1.8035 IS DISTORTING EXCESSIVELY.
   ELEMENT SILICON FINAL V1-1.8156 IS DISTORTING EXCESSIVELY.
   ELEMENT SILICON FINAL V1-1.8156 IS DISTORTING EXCESSIVELY.
   ELEMENT SILICON FINAL V1-1.8159 IS DISTORTING EXCESSIVELY.
   ELEMENT SILICON FINAL V1-1.8159 IS DISTORTING EXCESSIVELY.
   ELEMENT SILICON FINAL V1-1.8159 IS DISTORTING EXCESSIVELY.
   ELEMENT SILICON FINAL V1-1.8160 IS DISTORTING EXCESSIVELY.
   ELEMENT SILICON FINAL V1-1.8160 IS DISTORTING EXCESSIVELY.
   ELEMENT SILICON FINAL V1-1.8160 IS DISTORTING EXCESSIVELY.
   ELEMENT SILICON FINAL V1-1.8160 IS DISTORTING EXCESSIVELY.
   ELEMENT SILICON FINAL V1-1.8354 IS DISTORTING EXCESSIVELY.
   ELEMENT SILICON FINAL V1-1.8354 IS DISTORTING EXCESSIVELY.
   ELEMENT SILICON FINAL V1-1.8355 IS DISTORTING EXCESSIVELY.
   ELEMENT SILICON FINAL V1-1.8393 IS DISTORTING EXCESSIVELY.
   ELEMENT SILICON FINAL V1-1.8397 IS DISTORTING EXCESSIVELY.
   ELEMENT SILICON FINAL V1-1.8397 IS DISTORTING EXCESSIVELY.
   ELEMENT SILICON FINAL V1-1.8397 IS DISTORTING EXCESSIVELY.
   ELEMENT SILICON FINAL V1-1.8397 IS DISTORTING EXCESSIVELY.
   ELEMENT SILICON FINAL V1-1.8399 IS DISTORTING EXCESSIVELY.
   ELEMENT SILICON FINAL V1-1.8399 IS DISTORTING EXCESSIVELY.
   ELEMENT SILICON FINAL V1-1.8513 IS DISTORTING EXCESSIVELY.
   ELEMENT SILICON FINAL V1-1.8513 IS DISTORTING EXCESSIVELY.
   ELEMENT SILICON FINAL V1-1.8513 IS DISTORTING EXCESSIVELY.
   ELEMENT SILICON FINAL V1-1.8515 IS DISTORTING EXCESSIVELY.
   ELEMENT SILICON FINAL V1-1.8515 IS DISTORTING EXCESSIVELY.
   ELEMENT SILICON FINAL V1-1.8520 IS DISTORTING EXCESSIVELY.
   ELEMENT SILICON FINAL V1-1.8520 IS DISTORTING EXCESSIVELY.
   ELEMENT SILICON FINAL V1-1.8520 IS DISTORTING EXCESSIVELY.
   ELEMENT SILICON FINAL V1-1.8520 IS DISTORTING EXCESSIVELY.
   ELEMENT SILICON FINAL V1-1.8651 IS DISTORTING EXCESSIVELY.
   ELEMENT SILICON FINAL V1-1.8652 IS DISTORTING EXCESSIVELY.
   ELEMENT SILICON FINAL V1-1.8707 IS DISTORTING EXCESSIVELY.
   ELEMENT SILICON FINAL V1-1.8707 IS DISTORTING EXCESSIVELY.
   ELEMENT SILICON FINAL V1-1.8707 IS DISTORTING EXCESSIVELY.
   ELEMENT SILICON FINAL V1-1.8707 IS DISTORTING EXCESSIVELY.
   ELEMENT SILICON FINAL V1-1.8712 IS DISTORTING EXCESSIVELY.
   ELEMENT SILICON FINAL V1-1.8712 IS DISTORTING EXCESSIVELY.
   ELEMENT SILICON FINAL V1-1.8764 IS DISTORTING EXCESSIVELY.
   ELEMENT SILICON FINAL V1-1.8764 IS DISTORTING EXCESSIVELY.
   ELEMENT SILICON FINAL V1-1.8788 IS DISTORTING EXCESSIVELY.
   ELEMENT SILICON FINAL V1-1.8795 IS DISTORTING EXCESSIVELY.
   ELEMENT SILICON FINAL V1-1.8795 IS DISTORTING EXCESSIVELY.
   ELEMENT SILICON FINAL V1-1.8795 IS DISTORTING EXCESSIVELY.
   ELEMENT SILICON FINAL V1-1.8796 IS DISTORTING EXCESSIVELY.
   ELEMENT SILICON FINAL V1-1.8892 IS DISTORTING EXCESSIVELY.
   ELEMENT SILICON FINAL V1-1.8892 IS DISTORTING EXCESSIVELY.
   ELEMENT SILICON FINAL V1-1.8894 IS DISTORTING EXCESSIVELY.
   ELEMENT SILICON FINAL V1-1.8894 IS DISTORTING EXCESSIVELY.
   ELEMENT SILICON FINAL V1-1.8894 IS DISTORTING EXCESSIVELY.
   ELEMENT SILICON FINAL V1-1.8937 IS DISTORTING EXCESSIVELY.
   ELEMENT SILICON FINAL V1-1.8939 IS DISTORTING EXCESSIVELY.
   ELEMENT SILICON FINAL V1-1.8993 IS DISTORTING EXCESSIVELY.
   ELEMENT SILICON FINAL V1-1.8993 IS DISTORTING EXCESSIVELY.
   ELEMENT SILICON FINAL V1-1.8993 IS DISTORTING EXCESSIVELY.
   ELEMENT SILICON FINAL V1-1.8994 IS DISTORTING EXCESSIVELY.
   ELEMENT SILICON FINAL V1-1.8995 IS DISTORTING EXCESSIVELY.
   ELEMENT SILICON FINAL V1-1.8997 IS DISTORTING EXCESSIVELY.
   ELEMENT SILICON FINAL V1-1.8997 IS DISTORTING EXCESSIVELY.
   ELEMENT SILICON FINAL V1-1.8997 IS DISTORTING EXCESSIVELY.
   ELEMENT SILICON FINAL V1-1.8997 IS DISTORTING EXCESSIVELY.
   ELEMENT SILICON FINAL V1-1.8998 IS DISTORTING EXCESSIVELY.
   ELEMENT SILICON FINAL V1-1.8998 IS DISTORTING EXCESSIVELY.
   ELEMENT SILICON FINAL V1-1.8998 IS DISTORTING EXCESSIVELY.
   ELEMENT SILICON FINAL V1-1.8998 IS DISTORTING EXCESSIVELY.
   ELEMENT SILICON FINAL V1-1.8999 IS DISTORTING EXCESSIVELY.
   ELEMENT SILICON FINAL V1-1.8999 IS DISTORTING EXCESSIVELY.
   ELEMENT SILICON FINAL V1-1.8999 IS DISTORTING EXCESSIVELY.
   ELEMENT SILICON FINAL V1-1.8999 IS DISTORTING EXCESSIVELY.
   ELEMENT SILICON FINAL V1-1.9197 IS DISTORTING EXCESSIVELY.
   ELEMENT SILICON FINAL V1-1.9197 IS DISTORTING EXCESSIVELY.
   ELEMENT SILICON FINAL V1-1.9197 IS DISTORTING EXCESSIVELY.
   ELEMENT SILICON FINAL V1-1.9197 IS DISTORTING EXCESSIVELY.
   ELEMENT SILICON FINAL V1-1.9198 IS DISTORTING EXCESSIVELY.
   ELEMENT SILICON FINAL V1-1.9198 IS DISTORTING EXCESSIVELY.
   ELEMENT SILICON FINAL V1-1.9198 IS DISTORTING EXCESSIVELY.
   ELEMENT SILICON FINAL V1-1.9198 IS DISTORTING EXCESSIVELY.
   ELEMENT SILICON FINAL V1-1.9322 IS DISTORTING EXCESSIVELY.
   ELEMENT SILICON FINAL V1-1.9322 IS DISTORTING EXCESSIVELY.
   ELEMENT SILICON FINAL V1-1.9322 IS DISTORTING EXCESSIVELY.
   ELEMENT SILICON FINAL V1-1.9322 IS DISTORTING EXCESSIVELY.
   ELEMENT SILICON FINAL V1-1.9431 IS DISTORTING EXCESSIVELY.
   ELEMENT SILICON FINAL V1-1.9431 IS DISTORTING EXCESSIVELY.
   ELEMENT SILICON FINAL V1-1.9431 IS DISTORTING EXCESSIVELY.
   ELEMENT SILICON FINAL V1-1.9470 IS DISTORTING EXCESSIVELY.
   ELEMENT SILICON FINAL V1-1.9472 IS DISTORTING EXCESSIVELY.
   ELEMENT SILICON FINAL V1-1.9508 IS DISTORTING EXCESSIVELY.
   ELEMENT SILICON FINAL V1-1.9508 IS DISTORTING EXCESSIVELY.
   ELEMENT SILICON FINAL V1-1.9508 IS DISTORTING EXCESSIVELY.
   ELEMENT SILICON FINAL V1-1.9620 IS DISTORTING EXCESSIVELY.
   ELEMENT SILICON FINAL V1-1.9620 IS DISTORTING EXCESSIVELY.
   ELEMENT SILICON FINAL V1-1.9634 IS DISTORTING EXCESSIVELY.
   ELEMENT SILICON FINAL V1-1.9634 IS DISTORTING EXCESSIVELY.
   ELEMENT SILICON FINAL V1-1.9634 IS DISTORTING EXCESSIVELY.
   ELEMENT SILICON FINAL V1-1.9636 IS DISTORTING EXCESSIVELY.
   ELEMENT SILICON FINAL V1-1.9638 IS DISTORTING EXCESSIVELY.
   ELEMENT SILICON FINAL V1-1.9638 IS DISTORTING EXCESSIVELY.
   ELEMENT SILICON FINAL V1-1.9898 IS DISTORTING EXCESSIVELY.
   ELEMENT SILICON FINAL V1-1.9898 IS DISTORTING EXCESSIVELY.
   ELEMENT SILICON FINAL V1-1.9898 IS DISTORTING EXCESSIVELY.
   ELEMENT SILICON FINAL V1-1.9900 IS DISTORTING EXCESSIVELY.
   ELEMENT SILICON FINAL V1-1.9900 IS DISTORTING EXCESSIVELY.
   ELEMENT SILICON FINAL V1-1.9900 IS DISTORTING EXCESSIVELY.
   ELEMENT SILICON FINAL V1-1.9901 IS DISTORTING EXCESSIVELY.
   ELEMENT SILICON FINAL V1-1.9901 IS DISTORTING EXCESSIVELY.
   ELEMENT SILICON FINAL V1-1.9901 IS DISTORTING EXCESSIVELY.
   ELEMENT SILICON FINAL V1-1.9901 IS DISTORTING EXCESSIVELY.
   ELEMENT SILICON FINAL V1-1.9902 IS DISTORTING EXCESSIVELY.
   ELEMENT SILICON FINAL V1-1.9902 IS DISTORTING EXCESSIVELY.
   ELEMENT SILICON FINAL V1-1.9902 IS DISTORTING EXCESSIVELY.
   ELEMENT SILICON FINAL V1-1.9902 IS DISTORTING EXCESSIVELY.
   ELEMENT SILICON FINAL V1-1.10009 IS DISTORTING EXCESSIVELY.
   ELEMENT SILICON FINAL V1-1.10009 IS DISTORTING EXCESSIVELY.
   ELEMENT SILICON FINAL V1-1.10010 IS DISTORTING EXCESSIVELY.
   ELEMENT SILICON FINAL V1-1.10010 IS DISTORTING EXCESSIVELY.
   ELEMENT SILICON FINAL V1-1.10011 IS DISTORTING EXCESSIVELY.
   ELEMENT SILICON FINAL V1-1.10013 IS DISTORTING EXCESSIVELY.
   ELEMENT SILICON FINAL V1-1.10013 IS DISTORTING EXCESSIVELY.
   ELEMENT SILICON FINAL V1-1.10015 IS DISTORTING EXCESSIVELY.
   ELEMENT SILICON FINAL V1-1.10015 IS DISTORTING EXCESSIVELY.
   ELEMENT SILICON FINAL V1-1.10015 IS DISTORTING EXCESSIVELY.
   ELEMENT SILICON FINAL V1-1.10015 IS DISTORTING EXCESSIVELY.
   ELEMENT SILICON FINAL V1-1.10186 IS DISTORTING EXCESSIVELY.
   ELEMENT SILICON FINAL V1-1.10186 IS DISTORTING EXCESSIVELY.
   ELEMENT SILICON FINAL V1-1.10186 IS DISTORTING EXCESSIVELY.
   ELEMENT SILICON FINAL V1-1.10209 IS DISTORTING EXCESSIVELY.
   ELEMENT SILICON FINAL V1-1.10209 IS DISTORTING EXCESSIVELY.
   ELEMENT SILICON FINAL V1-1.10209 IS DISTORTING EXCESSIVELY.
   ELEMENT SILICON FINAL V1-1.10209 IS DISTORTING EXCESSIVELY.
   ELEMENT SILICON FINAL V1-1.10210 IS DISTORTING EXCESSIVELY.
   ELEMENT SILICON FINAL V1-1.10213 IS DISTORTING EXCESSIVELY.
   ELEMENT SILICON FINAL V1-1.10213 IS DISTORTING EXCESSIVELY.
   ELEMENT SILICON FINAL V1-1.10213 IS DISTORTING EXCESSIVELY.
   ELEMENT SILICON FINAL V1-1.10213 IS DISTORTING EXCESSIVELY.
   ELEMENT SILICON FINAL V1-1.10680 IS DISTORTING EXCESSIVELY.
   ELEMENT SILICON FINAL V1-1.10680 IS DISTORTING EXCESSIVELY.
   ELEMENT SILICON FINAL V1-1.10680 IS DISTORTING EXCESSIVELY.
   ELEMENT SILICON FINAL V1-1.10810 IS DISTORTING EXCESSIVELY.
   ELEMENT SILICON FINAL V1-1.10810 IS DISTORTING EXCESSIVELY.
   ELEMENT SILICON FINAL V1-1.10810 IS DISTORTING EXCESSIVELY.
   ELEMENT SILICON FINAL V1-1.10810 IS DISTORTING EXCESSIVELY.
   ELEMENT SILICON FINAL V1-1.10816 IS DISTORTING EXCESSIVELY.
   ELEMENT SILICON FINAL V1-1.11299 IS DISTORTING EXCESSIVELY.
   ELEMENT SILICON FINAL V1-1.11299 IS DISTORTING EXCESSIVELY.
   ELEMENT SILICON FINAL V1-1.11299 IS DISTORTING EXCESSIVELY.
   ELEMENT SILICON FINAL V1-1.11299 IS DISTORTING EXCESSIVELY.
   ELEMENT SILICON FINAL V1-1.11704 IS DISTORTING EXCESSIVELY.
   ELEMENT SILICON FINAL V1-1.11938 IS DISTORTING EXCESSIVELY.
   ELEMENT SILICON FINAL V1-1.11938 IS DISTORTING EXCESSIVELY.
   ELEMENT SILICON FINAL V1-1.11939 IS DISTORTING EXCESSIVELY.
   ELEMENT SILICON FINAL V1-1.11939 IS DISTORTING EXCESSIVELY.
   ELEMENT SILICON FINAL V1-1.11941 IS DISTORTING EXCESSIVELY.
   ELEMENT SILICON FINAL V1-1.11941 IS DISTORTING EXCESSIVELY.
   ELEMENT SILICON FINAL V1-1.11944 IS DISTORTING EXCESSIVELY.
   ELEMENT SILICON FINAL V1-1.11944 IS DISTORTING EXCESSIVELY.
   ELEMENT SILICON FINAL V1-1.12437 IS DISTORTING EXCESSIVELY.
   ELEMENT SILICON FINAL V1-1.12437 IS DISTORTING EXCESSIVELY.
   ELEMENT SILICON FINAL V1-1.12617 IS DISTORTING EXCESSIVELY.
   ELEMENT SILICON FINAL V1-1.12617 IS DISTORTING EXCESSIVELY.
   ELEMENT SILICON FINAL V1-1.12617 IS DISTORTING EXCESSIVELY.
   ELEMENT SILICON FINAL V1-1.12618 IS DISTORTING EXCESSIVELY.
   ELEMENT SILICON FINAL V1-1.12618 IS DISTORTING EXCESSIVELY.
   ELEMENT SILICON FINAL V1-1.12619 IS DISTORTING EXCESSIVELY.
   ELEMENT SILICON FINAL V1-1.12619 IS DISTORTING EXCESSIVELY.
   ELEMENT SILICON FINAL V1-1.12620 IS DISTORTING EXCESSIVELY.
   ELEMENT SILICON FINAL V1-1.12620 IS DISTORTING EXCESSIVELY.
   ELEMENT SILICON FINAL V1-1.12937 IS DISTORTING EXCESSIVELY.
   ELEMENT SILICON FINAL V1-1.12938 IS DISTORTING EXCESSIVELY.
   ELEMENT SILICON FINAL V1-1.12939 IS DISTORTING EXCESSIVELY.
   ELEMENT SILICON FINAL V1-1.12939 IS DISTORTING EXCESSIVELY.
   ELEMENT SILICON FINAL V1-1.12944 IS DISTORTING EXCESSIVELY.
[...]
 LARGEST INCREMENT OF DISP.         -261.       AT NODE        856   DOF  2
   INSTANCE: silicon final v1-1                                                              
 LARGEST CORRECTION TO DISP.         1.43       AT NODE        439   DOF  2
   INSTANCE: silicon final v1-1                                                              
          FORCE     EQUILIBRIUM NOT ACHIEVED WITHIN TOLERANCE.

 COMPATIBILITY ERRORS:
    TYPE                NUMBER EXCEEDING TOLERANCE  MAXIMUM ERROR        IN ELEMENT
 VOLUMETRIC                         87               -1.092E-04              27803
   INSTANCE: silicon final v1-1                                                              
 
	SYMMETRIC DIRECT SPARSE SOLVER RUNNING ON
 	1 HOST:        1 MPI RANK  x 8 THREADS
 	NUMBER OF EQUATIONS:     186250
 	NUMBER OF RHS:           1
 	NUMBER OF FLOPS:         1.053e+11

     CHECK POINT   START OF SOLVER    

     CHECK POINT  END OF SOLVER       

       ELAPSED USER TIME (SEC)      =   4.8000    
       ELAPSED SYSTEM TIME (SEC)    =   0.0000    
       ELAPSED TOTAL CPU TIME (SEC) =   4.8000    
       ELAPSED WALLCLOCK TIME (SEC) =          1

               CONVERGENCE CHECKS FOR EQUILIBRIUM ITERATION     5


 AVERAGE FORCE                       67.4       TIME AVG. FORCE        35.8    
 LARGEST RESIDUAL FORCE            -5.004E-04   AT NODE      43803   DOF  2
   INSTANCE: silicon final v1-1                                                              
 LARGEST INCREMENT OF DISP.         -261.       AT NODE        856   DOF  2
   INSTANCE: silicon final v1-1                                                              
 LARGEST CORRECTION TO DISP.        7.886E-03   AT NODE      43803   DOF  3
   INSTANCE: silicon final v1-1                                                              
          THE FORCE     EQUILIBRIUM EQUATIONS HAVE CONVERGED

 COMPATIBILITY ERRORS:
    TYPE                NUMBER EXCEEDING TOLERANCE  MAXIMUM ERROR        IN ELEMENT
 VOLUMETRIC                          0               -1.419E-08              16357
   INSTANCE: silicon final v1-1                                                              

 ITERATION SUMMARY FOR THE INCREMENT:   5 TOTAL ITERATIONS, OF WHICH
   0 ARE SEVERE DISCONTINUITY ITERATIONS AND  5 ARE EQUILIBRIUM ITERATIONS.

 TIME INCREMENT COMPLETED  6.674E-02,  FRACTION OF STEP COMPLETED  0.803    
 STEP TIME COMPLETED       0.803    ,  TOTAL TIME COMPLETED        0.803    


  INCREMENT    10 STARTS. ATTEMPT NUMBER  1, TIME INCREMENT  6.674E-02
 
	SYMMETRIC DIRECT SPARSE SOLVER RUNNING ON
 	1 HOST:        1 MPI RANK  x 8 THREADS
 	NUMBER OF EQUATIONS:     186250
 	NUMBER OF RHS:           1
 	NUMBER OF FLOPS:         1.053e+11

     CHECK POINT   START OF SOLVER    

     CHECK POINT  END OF SOLVER       

       ELAPSED USER TIME (SEC)      =   5.0000    
       ELAPSED SYSTEM TIME (SEC)    =   0.0000    
       ELAPSED TOTAL CPU TIME (SEC) =   5.0000    
       ELAPSED WALLCLOCK TIME (SEC) =          2
 

 ***WARNING: THE SYSTEM MATRIX HAS 2 NEGATIVE EIGENVALUES.
             EXPLANATIONS ARE SUGGESTED AFTER THE FIRST OCCURRENCE OF THIS MESSAGE.

               CONVERGENCE CHECKS FOR EQUILIBRIUM ITERATION     1


 AVERAGE FORCE                       83.8       TIME AVG. FORCE        40.6    
 LARGEST RESIDUAL FORCE             -570.       AT NODE      32463   DOF  2
   INSTANCE: silicon final v1-1                                                              
 LARGEST INCREMENT OF DISP.         -151.       AT NODE      11885   DOF  3
   INSTANCE: silicon final v1-1                                                              
 LARGEST CORRECTION TO DISP.         136.       AT NODE        439   DOF  2
   INSTANCE: silicon final v1-1                                                              
          FORCE     EQUILIBRIUM NOT ACHIEVED WITHIN TOLERANCE.

 COMPATIBILITY ERRORS:
    TYPE                NUMBER EXCEEDING TOLERANCE  MAXIMUM ERROR        IN ELEMENT
 VOLUMETRIC                      27472               -1.668E-02               9481
   INSTANCE: silicon final v1-1                                                              
 
	SYMMETRIC DIRECT SPARSE SOLVER RUNNING ON
 	1 HOST:        1 MPI RANK  x 8 THREADS
 	NUMBER OF EQUATIONS:     186250
 	NUMBER OF RHS:           1
 	NUMBER OF FLOPS:         1.053e+11

     CHECK POINT   START OF SOLVER    

     CHECK POINT  END OF SOLVER       

       ELAPSED USER TIME (SEC)      =   5.0000    
       ELAPSED SYSTEM TIME (SEC)    =   0.0000    
       ELAPSED TOTAL CPU TIME (SEC) =   5.0000    
       ELAPSED WALLCLOCK TIME (SEC) =          1

               CONVERGENCE CHECKS FOR EQUILIBRIUM ITERATION     2


 AVERAGE FORCE                       80.2       TIME AVG. FORCE        40.2    
 LARGEST RESIDUAL FORCE             -652.       AT NODE      32472   DOF  2
   INSTANCE: silicon final v1-1                                                              
 LARGEST INCREMENT OF DISP.         -217.       AT NODE      29825   DOF  2
   INSTANCE: silicon final v1-1                                                              
 LARGEST CORRECTION TO DISP.        -94.7       AT NODE        439   DOF  2
   INSTANCE: silicon final v1-1                                                              
          FORCE     EQUILIBRIUM NOT ACHIEVED WITHIN TOLERANCE.

 COMPATIBILITY ERRORS:
    TYPE                NUMBER EXCEEDING TOLERANCE  MAXIMUM ERROR        IN ELEMENT
 VOLUMETRIC                      26893               -1.052E-02              19255
   INSTANCE: silicon final v1-1                                                              
 
	SYMMETRIC DIRECT SPARSE SOLVER RUNNING ON
 	1 HOST:        1 MPI RANK  x 8 THREADS
 	NUMBER OF EQUATIONS:     186250
 	NUMBER OF RHS:           1
 	NUMBER OF FLOPS:         1.053e+11

     CHECK POINT   START OF SOLVER    

     CHECK POINT  END OF SOLVER       

       ELAPSED USER TIME (SEC)      =   4.7000    
       ELAPSED SYSTEM TIME (SEC)    =  0.10000    
       ELAPSED TOTAL CPU TIME (SEC) =   4.8000    
       ELAPSED WALLCLOCK TIME (SEC) =          1

               CONVERGENCE CHECKS FOR EQUILIBRIUM ITERATION     3


 AVERAGE FORCE                       79.5       TIME AVG. FORCE        40.2    
 LARGEST RESIDUAL FORCE              8.63       AT NODE      11885   DOF  3
   INSTANCE: silicon final v1-1                                                              
 LARGEST INCREMENT OF DISP.         -217.       AT NODE      29825   DOF  2
   INSTANCE: silicon final v1-1                                                              
 LARGEST CORRECTION TO DISP.         2.58       AT NODE      47732   DOF  3
   INSTANCE: silicon final v1-1                                                              
          FORCE     EQUILIBRIUM NOT ACHIEVED WITHIN TOLERANCE.

 COMPATIBILITY ERRORS:
    TYPE                NUMBER EXCEEDING TOLERANCE  MAXIMUM ERROR        IN ELEMENT
 VOLUMETRIC                        306               -1.166E-04              19309
   INSTANCE: silicon final v1-1                                                              
 
	SYMMETRIC DIRECT SPARSE SOLVER RUNNING ON
 	1 HOST:        1 MPI RANK  x 8 THREADS
 	NUMBER OF EQUATIONS:     186250
 	NUMBER OF RHS:           1
 	NUMBER OF FLOPS:         1.053e+11

     CHECK POINT   START OF SOLVER    

     CHECK POINT  END OF SOLVER       

       ELAPSED USER TIME (SEC)      =   4.9000    
       ELAPSED SYSTEM TIME (SEC)    =   0.0000    
       ELAPSED TOTAL CPU TIME (SEC) =   4.9000    
       ELAPSED WALLCLOCK TIME (SEC) =          2

               CONVERGENCE CHECKS FOR EQUILIBRIUM ITERATION     4


 AVERAGE FORCE                       80.2       TIME AVG. FORCE        40.2    
 LARGEST RESIDUAL FORCE             1.778E-02   AT NODE      47808   DOF  2
   INSTANCE: silicon final v1-1                                                              
 LARGEST INCREMENT OF DISP.         -217.       AT NODE      29825   DOF  2
   INSTANCE: silicon final v1-1                                                              
 LARGEST CORRECTION TO DISP.       -0.262       AT NODE        439   DOF  2
   INSTANCE: silicon final v1-1                                                              
          THE FORCE     EQUILIBRIUM EQUATIONS HAVE CONVERGED

 COMPATIBILITY ERRORS:
    TYPE                NUMBER EXCEEDING TOLERANCE  MAXIMUM ERROR        IN ELEMENT
 VOLUMETRIC                          0               -6.368E-07              19309
   INSTANCE: silicon final v1-1                                                              

 ITERATION SUMMARY FOR THE INCREMENT:   4 TOTAL ITERATIONS, OF WHICH
   0 ARE SEVERE DISCONTINUITY ITERATIONS AND  4 ARE EQUILIBRIUM ITERATIONS.

 TIME INCREMENT COMPLETED  6.674E-02,  FRACTION OF STEP COMPLETED  0.870    
 STEP TIME COMPLETED       0.870    ,  TOTAL TIME COMPLETED        0.870    


  INCREMENT    11 STARTS. ATTEMPT NUMBER  1, TIME INCREMENT  6.674E-02
 
	SYMMETRIC DIRECT SPARSE SOLVER RUNNING ON
 	1 HOST:        1 MPI RANK  x 8 THREADS
 	NUMBER OF EQUATIONS:     186250
 	NUMBER OF RHS:           1
 	NUMBER OF FLOPS:         1.053e+11

     CHECK POINT   START OF SOLVER    

     CHECK POINT  END OF SOLVER       

       ELAPSED USER TIME (SEC)      =   4.7000    
       ELAPSED SYSTEM TIME (SEC)    =   0.0000    
       ELAPSED TOTAL CPU TIME (SEC) =   4.7000    
       ELAPSED WALLCLOCK TIME (SEC) =          1
 

 ***WARNING: THE SYSTEM MATRIX HAS 1 NEGATIVE EIGENVALUES.
             EXPLANATIONS ARE SUGGESTED AFTER THE FIRST OCCURRENCE OF THIS MESSAGE.

               CONVERGENCE CHECKS FOR EQUILIBRIUM ITERATION     1


 AVERAGE FORCE                       91.8       TIME AVG. FORCE        44.9    
 LARGEST RESIDUAL FORCE             -237.       AT NODE      33525   DOF  2
   INSTANCE: silicon final v1-1                                                              
 LARGEST INCREMENT OF DISP.         -177.       AT NODE        856   DOF  2
   INSTANCE: silicon final v1-1                                                              
 LARGEST CORRECTION TO DISP.         42.2       AT NODE      47154   DOF  2
   INSTANCE: silicon final v1-1                                                              
          FORCE     EQUILIBRIUM NOT ACHIEVED WITHIN TOLERANCE.

 COMPATIBILITY ERRORS:
    TYPE                NUMBER EXCEEDING TOLERANCE  MAXIMUM ERROR        IN ELEMENT
 VOLUMETRIC                      25402                1.081E-03              26464
   INSTANCE: silicon final v1-1                                                              
 
	SYMMETRIC DIRECT SPARSE SOLVER RUNNING ON
 	1 HOST:        1 MPI RANK  x 8 THREADS
 	NUMBER OF EQUATIONS:     186250
 	NUMBER OF RHS:           1
 	NUMBER OF FLOPS:         1.053e+11

     CHECK POINT   START OF SOLVER    

     CHECK POINT  END OF SOLVER       

       ELAPSED USER TIME (SEC)      =   4.9000    
       ELAPSED SYSTEM TIME (SEC)    =   0.0000    
       ELAPSED TOTAL CPU TIME (SEC) =   4.9000    
       ELAPSED WALLCLOCK TIME (SEC) =          2

               CONVERGENCE CHECKS FOR EQUILIBRIUM ITERATION     2


 AVERAGE FORCE                       91.0       TIME AVG. FORCE        44.8    
 LARGEST RESIDUAL FORCE             -22.3       AT NODE      11885   DOF  3
   INSTANCE: silicon final v1-1                                                              
 LARGEST INCREMENT OF DISP.         -186.       AT NODE      30822   DOF  2
   INSTANCE: silicon final v1-1                                                              
 LARGEST CORRECTION TO DISP.        -12.8       AT NODE      47154   DOF  2
   INSTANCE: silicon final v1-1                                                              
          FORCE     EQUILIBRIUM NOT ACHIEVED WITHIN TOLERANCE.

 COMPATIBILITY ERRORS:
    TYPE                NUMBER EXCEEDING TOLERANCE  MAXIMUM ERROR        IN ELEMENT
 VOLUMETRIC                       4477               -3.084E-04               9481
   INSTANCE: silicon final v1-1                                                              
 
	SYMMETRIC DIRECT SPARSE SOLVER RUNNING ON
 	1 HOST:        1 MPI RANK  x 8 THREADS
 	NUMBER OF EQUATIONS:     186250
 	NUMBER OF RHS:           1
 	NUMBER OF FLOPS:         1.053e+11

     CHECK POINT   START OF SOLVER    

     CHECK POINT  END OF SOLVER       

       ELAPSED USER TIME (SEC)      =   5.2000    
       ELAPSED SYSTEM TIME (SEC)    =   0.0000    
       ELAPSED TOTAL CPU TIME (SEC) =   5.2000    
       ELAPSED WALLCLOCK TIME (SEC) =          1

               CONVERGENCE CHECKS FOR EQUILIBRIUM ITERATION     3


 AVERAGE FORCE                       93.4       TIME AVG. FORCE        45.1    
 LARGEST RESIDUAL FORCE            -7.590E-03   AT NODE      32472   DOF  2
   INSTANCE: silicon final v1-1                                                              
 LARGEST INCREMENT OF DISP.         -186.       AT NODE      30822   DOF  2
   INSTANCE: silicon final v1-1                                                              
 LARGEST CORRECTION TO DISP.        0.408       AT NODE      47154   DOF  2
   INSTANCE: silicon final v1-1                                                              
          THE FORCE     EQUILIBRIUM EQUATIONS HAVE CONVERGED

 COMPATIBILITY ERRORS:
    TYPE                NUMBER EXCEEDING TOLERANCE  MAXIMUM ERROR        IN ELEMENT
 VOLUMETRIC                          0               -1.784E-07               9354
   INSTANCE: silicon final v1-1                                                              

 ITERATION SUMMARY FOR THE INCREMENT:   3 TOTAL ITERATIONS, OF WHICH
   0 ARE SEVERE DISCONTINUITY ITERATIONS AND  3 ARE EQUILIBRIUM ITERATIONS.

 TIME INCREMENT COMPLETED  6.674E-02,  FRACTION OF STEP COMPLETED  0.936    
 STEP TIME COMPLETED       0.936    ,  TOTAL TIME COMPLETED        0.936    


  INCREMENT    12 STARTS. ATTEMPT NUMBER  1, TIME INCREMENT  6.375E-02
 
	SYMMETRIC DIRECT SPARSE SOLVER RUNNING ON
 	1 HOST:        1 MPI RANK  x 8 THREADS
 	NUMBER OF EQUATIONS:     186250
 	NUMBER OF RHS:           1
 	NUMBER OF FLOPS:         1.053e+11

     CHECK POINT   START OF SOLVER    

     CHECK POINT  END OF SOLVER       

       ELAPSED USER TIME (SEC)      =   4.9000    
       ELAPSED SYSTEM TIME (SEC)    =   0.0000    
       ELAPSED TOTAL CPU TIME (SEC) =   4.9000    
       ELAPSED WALLCLOCK TIME (SEC) =          2
 

 ***WARNING: THE SYSTEM MATRIX HAS 1 NEGATIVE EIGENVALUES.
             EXPLANATIONS ARE SUGGESTED AFTER THE FIRST OCCURRENCE OF THIS MESSAGE.

               CONVERGENCE CHECKS FOR EQUILIBRIUM ITERATION     1


 AVERAGE FORCE                       104.       TIME AVG. FORCE        50.0    
 LARGEST RESIDUAL FORCE             -106.       AT NODE      33525   DOF  2
   INSTANCE: silicon final v1-1                                                              
 LARGEST INCREMENT OF DISP.         -152.       AT NODE      29825   DOF  2
   INSTANCE: silicon final v1-1                                                              
 LARGEST CORRECTION TO DISP.         26.7       AT NODE        439   DOF  2
   INSTANCE: silicon final v1-1                                                              
          FORCE     EQUILIBRIUM NOT ACHIEVED WITHIN TOLERANCE.

 COMPATIBILITY ERRORS:
    TYPE                NUMBER EXCEEDING TOLERANCE  MAXIMUM ERROR        IN ELEMENT
 VOLUMETRIC                      23415                5.707E-04               7199
   INSTANCE: silicon final v1-1                                                              
 
	SYMMETRIC DIRECT SPARSE SOLVER RUNNING ON
 	1 HOST:        1 MPI RANK  x 8 THREADS
 	NUMBER OF EQUATIONS:     186250
 	NUMBER OF RHS:           1
 	NUMBER OF FLOPS:         1.053e+11

     CHECK POINT   START OF SOLVER    

     CHECK POINT  END OF SOLVER       

       ELAPSED USER TIME (SEC)      =   5.0000    
       ELAPSED SYSTEM TIME (SEC)    =   0.0000    
       ELAPSED TOTAL CPU TIME (SEC) =   5.0000    
       ELAPSED WALLCLOCK TIME (SEC) =          2

               CONVERGENCE CHECKS FOR EQUILIBRIUM ITERATION     2


 AVERAGE FORCE                       104.       TIME AVG. FORCE        50.0    
 LARGEST RESIDUAL FORCE             -4.77       AT NODE      11885   DOF  3
   INSTANCE: silicon final v1-1                                                              
 LARGEST INCREMENT OF DISP.         -156.       AT NODE      30822   DOF  2
   INSTANCE: silicon final v1-1                                                              
 LARGEST CORRECTION TO DISP.        -5.23       AT NODE        439   DOF  2
   INSTANCE: silicon final v1-1                                                              
          FORCE     EQUILIBRIUM NOT ACHIEVED WITHIN TOLERANCE.

 COMPATIBILITY ERRORS:
    TYPE                NUMBER EXCEEDING TOLERANCE  MAXIMUM ERROR        IN ELEMENT
 VOLUMETRIC                        698               -4.987E-05               9481
   INSTANCE: silicon final v1-1                                                              
 
	SYMMETRIC DIRECT SPARSE SOLVER RUNNING ON
 	1 HOST:        1 MPI RANK  x 8 THREADS
 	NUMBER OF EQUATIONS:     186250
 	NUMBER OF RHS:           1
 	NUMBER OF FLOPS:         1.053e+11

     CHECK POINT   START OF SOLVER    

     CHECK POINT  END OF SOLVER       

       ELAPSED USER TIME (SEC)      =   4.8000    
       ELAPSED SYSTEM TIME (SEC)    =   0.0000    
       ELAPSED TOTAL CPU TIME (SEC) =   4.8000    
       ELAPSED WALLCLOCK TIME (SEC) =          1

               CONVERGENCE CHECKS FOR EQUILIBRIUM ITERATION     3


 AVERAGE FORCE                       107.       TIME AVG. FORCE        50.2    
 LARGEST RESIDUAL FORCE            -6.600E-04   AT NODE      32448   DOF  2
   INSTANCE: silicon final v1-1                                                              
 LARGEST INCREMENT OF DISP.         -156.       AT NODE      30822   DOF  2
   INSTANCE: silicon final v1-1                                                              
 LARGEST CORRECTION TO DISP.        9.262E-02   AT NODE        439   DOF  2
   INSTANCE: silicon final v1-1                                                              
          THE FORCE     EQUILIBRIUM EQUATIONS HAVE CONVERGED

 COMPATIBILITY ERRORS:
    TYPE                NUMBER EXCEEDING TOLERANCE  MAXIMUM ERROR        IN ELEMENT
 VOLUMETRIC                          0               -6.443E-09               9354
   INSTANCE: silicon final v1-1                                                              

 ITERATION SUMMARY FOR THE INCREMENT:   3 TOTAL ITERATIONS, OF WHICH
   0 ARE SEVERE DISCONTINUITY ITERATIONS AND  3 ARE EQUILIBRIUM ITERATIONS.

 TIME INCREMENT COMPLETED  6.375E-02,  FRACTION OF STEP COMPLETED   1.00    
 STEP TIME COMPLETED        1.00    ,  TOTAL TIME COMPLETED         1.00    


          THE ANALYSIS HAS BEEN COMPLETED



     ANALYSIS SUMMARY:
     TOTAL OF         12  INCREMENTS
                       4  CUTBACKS IN AUTOMATIC INCREMENTATION
                      45  ITERATIONS INCLUDING CONTACT ITERATIONS IF PRESENT
                      45  PASSES THROUGH THE EQUATION SOLVER OF WHICH 
                      45  INVOLVE MATRIX DECOMPOSITION, INCLUDING
                       0  DECOMPOSITION(S) OF THE MASS MATRIX
                       1  REORDERING OF EQUATIONS TO MINIMIZE WAVEFRONT
                       0  ADDITIONAL RESIDUAL EVALUATIONS FOR LINE SEARCHES
                       0  ADDITIONAL OPERATOR EVALUATIONS FOR LINE SEARCHES
                       1  WARNING MESSAGES DURING USER INPUT PROCESSING
                      17  WARNING MESSAGES DURING ANALYSIS
                       0  ANALYSIS WARNINGS ARE NUMERICAL PROBLEM MESSAGES
                      13  ANALYSIS WARNINGS ARE NEGATIVE EIGENVALUE MESSAGES
                       0  ERROR MESSAGES



     JOB TIME SUMMARY
       USER TIME (SEC)      =   252.00    
       SYSTEM TIME (SEC)    =   2.7000    
       TOTAL CPU TIME (SEC) =   254.70    
       WALLCLOCK TIME (SEC) =        111
