 Abaqus/Standard 2022                  DATE 11-Nov-2022 TIME 11:26:18
 SUMMARY OF JOB INFORMATION:
 STEP  INC ATT SEVERE EQUIL TOTAL  TOTAL      STEP       INC OF       DOF    IF
               DISCON ITERS ITERS  TIME/    TIME/LPF    TIME/LPF    MONITOR RIKS
               ITERS               FREQ
   1     1   1U    0     1     1  0.00       0.00       1.000     
   1     1   2     0     4     4  0.250      0.250      0.2500    
   1     2   1     0     3     3  0.500      0.500      0.2500    
   1     3   1U    0     1     1  0.500      0.500      0.3750    
   1     3   2     0     4     4  0.594      0.594      0.09375   
   1     4   1U    0     1     1  0.594      0.594      0.1406    
   1     4   2     0     3     3  0.629      0.629      0.03516   
   1     5   1U    0     1     1  0.629      0.629      0.05273   
   1     5   2     0     3     3  0.642      0.642      0.01318   
   1     6   1     0     3     3  0.662      0.662      0.01978   
   1     7   1     0     3     3  0.692      0.692      0.02966   
   1     8   1     0     3     3  0.736      0.736      0.04449   
   1     9   1     0     5     5  0.803      0.803      0.06674   
   1    10   1     0     4     4  0.870      0.870      0.06674   
   1    11   1     0     3     3  0.936      0.936      0.06674   
   1    12   1     0     3     3  1.00       1.00       0.06375   
                          
 THE ANALYSIS HAS COMPLETED SUCCESSFULLY
