 Abaqus/Standard 2022                  DATE 11-Nov-2022 TIME 12:03:08
 SUMMARY OF JOB INFORMATION:
 STEP  INC ATT SEVERE EQUIL TOTAL  TOTAL      STEP       INC OF       DOF    IF
               DISCON ITERS ITERS  TIME/    TIME/LPF    TIME/LPF    MONITOR RIKS
               ITERS               FREQ
   1     1   1U    0     1     1  0.00       0.00       1.000     
   1     1   2     0     4     4  0.250      0.250      0.2500    
   1     2   1     0     4     4  0.500      0.500      0.2500    
   1     3   1U    0     1     1  0.500      0.500      0.3750    
   1     3   2     0     4     4  0.594      0.594      0.09375   
   1     4   1U    0     1     1  0.594      0.594      0.1406    
   1     4   2     0     4     4  0.629      0.629      0.03516   
   1     5   1U    0     1     1  0.629      0.629      0.05273   
   1     5   2     0     3     3  0.642      0.642      0.01318   
   1     6   1     0     3     3  0.662      0.662      0.01978   
   1     7   1     0     3     3  0.692      0.692      0.02966   
   1     8   1     0     4     4  0.736      0.736      0.04449   
   1     9   1U    0     3     3  0.736      0.736      0.06674   
   1     9   2     0     2     2  0.753      0.753      0.01669   
   1    10   1     0     2     2  0.778      0.778      0.02503   
   1    11   1     0     3     3  0.815      0.815      0.03754   
   1    12   1     0     3     3  0.872      0.872      0.05631   
   1    13   1U    0     6     6  0.872      0.872      0.08447   
   1    13   2     0     2     2  0.893      0.893      0.02112   
   1    14   1     0     2     2  0.924      0.924      0.03168   
   1    15   1U    0     2     2  0.924      0.924      0.04751   
   1    15   2     0     2     2  0.936      0.936      0.01188   
   1    16   1     0     3     3  0.954      0.954      0.01782   
   1    17   1U    0     4     4  0.954      0.954      0.02673   
   1    17   2U    0     6     6  0.954      0.954      0.006682  
   1    17   3U    0     6     6  0.954      0.954      0.001670  
   1    17   4     0     2     2  0.955      0.955      0.0004176 
   1    18   1U    0     7     7  0.955      0.955      0.0006264 
   1    18   2     0     1     1  0.955      0.955      0.0001566 
   1    19   1     0     2     2  0.955      0.955      0.0002349 
   1    20   1U    0     1     1  0.955      0.955      0.0003524 
   1    20   2     0     2     2  0.955      0.955      8.809e-05 
   1    21   1U    0     7     7  0.955      0.955      0.0001321 
   1    21   2     0     2     2  0.955      0.955      3.303e-05 
   1    22   1U    0     7     7  0.955      0.955      4.955e-05 
   1    22   2U    0     6     6  0.955      0.955      1.239e-05 
   1    22   3     0     2     2  0.955      0.955      3.097e-06 
   1    23   1     0     2     2  0.955      0.955      4.645e-06 
   1    24   1U    0     8     8  0.955      0.955      6.968e-06 
   1    24   2U    0     6     6  0.955      0.955      1.742e-06 
   1    24   3     0     2     2  0.955      0.955      4.355e-07 
   1    25   1     0     2     2  0.955      0.955      6.532e-07 
   1    26   1U    0     4     4  0.955      0.955      9.799e-07 
   1    26   2U    0     6     6  0.955      0.955      2.450e-07 
   1    26   3     0     3     3  0.955      0.955      6.124e-08 
   1    27   1U    0     7     7  0.955      0.955      9.186e-08 
   1    27   2U    0     8     8  0.955      0.955      2.297e-08 
   1    27   3     0     2     2  0.955      0.955      1.000e-08 
   1    28   1U    0     5     5  0.955      0.955      1.500e-08 
   1    28   2U    0     7     7  0.955      0.955      1.000e-08 
                          
 THE ANALYSIS HAS NOT BEEN COMPLETED
